/*--------------------------------*- C++ -*----------------------------------*\
| =========                 |                                                 |
| \\      /  F ield         | OpenFOAM: The Open Source CFD Toolbox           |
|  \\    /   O peration     | Version:  v2206                                 |
|   \\  /    A nd           | Web:      www.OpenFOAM.com                      |
|    \\/     M anipulation  |                                                 |
\*---------------------------------------------------------------------------*/
FoamFile
{
    version     2.0;
    format      ascii;
    class       dictionary;
    object      controlDict;
}
// * * * * * * * * * * * * * * * * * * * * * * * * * * * * * * * * * * * * * //

#include          "include/caseDefinition"

application       pimpleFoam;

startFrom         latestTime;
startTime         0;
stopAt            endTime;
endTime           2.44;

deltaT            2e-4;

writeControl      timeStep; 
writeInterval     100;

purgeWrite        2;

writeFormat       binary;
writePrecision    16;
writeCompression  off;

timeFormat        general;
timePrecision     7;

runTimeModifiable yes;
adjustableRunTime no;

libs 
(
    "libOpenFOAM.so"
    "libdistributed.so"
    "libturbulenceModelSchemes.so"
    "libfieldFunctionObjects.so"
);

functions
{
// STANDARD OUTPUTS
    #include "outputDefs/volFields"
    #include "outputDefs/wallFields"
    #include "outputDefs/solverInfo"
    #include "outputDefs/fieldMinMax"
    #include "outputDefs/fieldAverage"

    // OPTIONAL OUTPUTS
    #include "outputDefs/forceCoeffs"
    #include "outputDefs/probes"
    #include "outputDefs/DESFields"
}

// ************************************************************************* //
