/*--------------------------------*- C++ -*----------------------------------*\
| =========                 |                                                 |
| \      /  F ield         | OpenFOAM: The Open Source CFD Toolbox           |
|  \    /   O peration     | Version:  1.6                                   |
|   \  /    A nd           | Web:      http://www.OpenFOAM.org               |
|    \/     M anipulation  |                                                 |
\*---------------------------------------------------------------------------*/
FoamFile
{
    version     2.0;
    format      ascii;
    class       dictionary;
    object      airfoilProperties;
}
// * * * * * * * * * * * * * * * * * * * * * * * * * * * * * * * * * * * * * //

airfoilData
(
//   alpha   C_l    C_d
(4.1655     0.77098272 0.02027721)
(5.1655     0.87421464 0.02163145)
(6.1655     0.96923879 0.02345364)
(7.1655     1.05458897 0.02587855)
(8.1655     1.12682606 0.02921996)
(9.1655     1.18175886 0.0339577 )
(10.1655      1.2141549   0.04078881)
(11.1655      1.22127647  0.05021064)
(12.1655      1.21055223  0.06191307)
(13.1655      1.19254557  0.07501047)
);
