/*--------------------------------*- C++ -*----------------------------------*\
| =========                 |                                                 |
| \      /  F ield         | OpenFOAM: The Open Source CFD Toolbox           |
|  \    /   O peration     | Version:  1.6                                   |
|   \  /    A nd           | Web:      http://www.OpenFOAM.org               |
|    \/     M anipulation  |                                                 |
\*---------------------------------------------------------------------------*/
FoamFile
{
    version     2.0;
    format      ascii;
    class       dictionary;
    object      airfoilProperties;
}
// * * * * * * * * * * * * * * * * * * * * * * * * * * * * * * * * * * * * * //

airfoilData
(
//   alpha   C_l    C_d
(2.2683     0.59353197 0.01554258)
(3.2683     0.70729317 0.01637263)
(4.2683     0.81874922 0.01742701)
(5.2683     0.92680966 0.01875514)
(6.2683     1.03070922 0.02039895)
(7.2683     1.1283355  0.02253501)
(8.2683     1.21591215 0.02546473)
(9.2683     1.27711026 0.03070774)
(10.2683      1.18988782  0.0498201 )
(11.2683      1.15518718  0.06375109)
);
