/*--------------------------------*- C++ -*----------------------------------*\
| =========                 |                                                 |
| \      /  F ield         | OpenFOAM: The Open Source CFD Toolbox           |
|  \    /   O peration     | Version:  1.6                                   |
|   \  /    A nd           | Web:      http://www.OpenFOAM.org               |
|    \/     M anipulation  |                                                 |
\*---------------------------------------------------------------------------*/
FoamFile
{
    version     2.0;
    format      ascii;
    class       dictionary;
    object      airfoilProperties;
}
// * * * * * * * * * * * * * * * * * * * * * * * * * * * * * * * * * * * * * //

airfoilData
(
//   alpha   C_l    C_d
(0.9844     0.34914627 0.01382392)
(1.9844     0.46019476 0.01435824)
(2.9844     0.56896459 0.0150802 )
(3.9844     0.67496229 0.01601289)
(4.9844     0.77669327 0.0171948 )
(5.9844     0.87278819 0.01869152)
(6.9844     0.96160763 0.02061291)
(7.9844     1.04187054 0.02310366)
(8.9844     1.11061391 0.02640159)
(9.9844     1.16720188 0.0307873 )
);
