/*--------------------------------*- C++ -*----------------------------------*\
| =========                 |                                                 |
| \      /  F ield         | OpenFOAM: The Open Source CFD Toolbox           |
|  \    /   O peration     | Version:  1.6                                   |
|   \  /    A nd           | Web:      http://www.OpenFOAM.org               |
|    \/     M anipulation  |                                                 |
\*---------------------------------------------------------------------------*/
FoamFile
{
    version     2.0;
    format      ascii;
    class       dictionary;
    object      airfoilProperties;
}
// * * * * * * * * * * * * * * * * * * * * * * * * * * * * * * * * * * * * * //

airfoilData
(
//   alpha   C_l    C_d
(13.5352      1.13530256  0.08549999)
(14.5352      1.18185235  0.10149152)
(15.5352      1.40351004  0.12645866)
(16.5352      1.47864013  0.14544653)
(17.5352      1.5844669   0.17309705)
(18.5352      1.66467562  0.19711469)
(19.5352      1.71389838  0.22399553)
(20.5352      1.74047368  0.25678916)
(21.5352      1.72416895  0.2822534 )
(22.5352      1.71431932  0.31167896)
);
