/*--------------------------------*- C++ -*----------------------------------*\
| =========                 |                                                 |
| \      /  F ield         | OpenFOAM: The Open Source CFD Toolbox           |
|  \    /   O peration     | Version:  1.6                                   |
|   \  /    A nd           | Web:      http://www.OpenFOAM.org               |
|    \/     M anipulation  |                                                 |
\*---------------------------------------------------------------------------*/
FoamFile
{
    version     2.0;
    format      ascii;
    class       dictionary;
    object      airfoilProperties;
}
// * * * * * * * * * * * * * * * * * * * * * * * * * * * * * * * * * * * * * //

airfoilData
(
//   alpha   C_l    C_d
(2.9383     0.6676117  0.01610163)
(3.9383     0.7795023  0.01707882)
(4.9383     0.88857462 0.01829967)
(5.9383     0.99368046 0.01982922)
(6.9383     1.09357307 0.02175024)
(7.9383     1.18500965 0.02433732)
(8.9383     1.25915022 0.02834533)
(9.9383     1.22352769 0.04271338)
(10.9383      1.15848848  0.05946636)
(11.9383      1.14525351  0.07168159)
);
