/*--------------------------------*- C++ -*----------------------------------*\
| =========                 |                                                 |
| \      /  F ield         | OpenFOAM: The Open Source CFD Toolbox           |
|  \    /   O peration     | Version:  1.6                                   |
|   \  /    A nd           | Web:      http://www.OpenFOAM.org               |
|    \/     M anipulation  |                                                 |
\*---------------------------------------------------------------------------*/
FoamFile
{
    version     2.0;
    format      ascii;
    class       dictionary;
    object      airfoilProperties;
}
// * * * * * * * * * * * * * * * * * * * * * * * * * * * * * * * * * * * * * //

airfoilData
(
//   alpha   C_l    C_d
(1.5508     0.14210542 0.03028048)
(2.5508     0.22904248 0.03075037)
(3.5508     0.31560116 0.0314738 )
(4.5508     0.3997564  0.03248154)
(5.5508     0.48114794 0.0337952 )
(6.5508     0.558916   0.03549182)
(7.5508     0.63160145 0.03771273)
(8.5508     0.69803912 0.04060876)
(9.5508     0.75601061 0.04445712)
(10.5508      0.80137606  0.0497794 )
);
