/*--------------------------------*- C++ -*----------------------------------*\
| =========                 |                                                 |
| \      /  F ield         | OpenFOAM: The Open Source CFD Toolbox           |
|  \    /   O peration     | Version:  1.6                                   |
|   \  /    A nd           | Web:      http://www.OpenFOAM.org               |
|    \/     M anipulation  |                                                 |
\*---------------------------------------------------------------------------*/
FoamFile
{
    version     2.0;
    format      ascii;
    class       dictionary;
    object      airfoilProperties;
}
// * * * * * * * * * * * * * * * * * * * * * * * * * * * * * * * * * * * * * //

airfoilData
(
//   alpha   C_l    C_d
(5.3008     0.88338624 0.0219432 )
(6.3008     0.97687606 0.02383298)
(7.3008     1.06004294 0.0263767 )
(8.3008     1.12900265 0.02991153)
(9.3008     1.1794644  0.03498739)
(10.3008      1.20742285  0.04226526)
(11.3008      1.21340966  0.05202164)
(12.3008      1.2015627   0.06392316)
(13.3008      1.18378146  0.07714359)
(14.3008      1.16872381  0.09079928)
);
