/*--------------------------------*- C++ -*----------------------------------*\
| =========                 |                                                 |
| \      /  F ield         | OpenFOAM: The Open Source CFD Toolbox           |
|  \    /   O peration     | Version:  1.6                                   |
|   \  /    A nd           | Web:      http://www.OpenFOAM.org               |
|    \/     M anipulation  |                                                 |
\*---------------------------------------------------------------------------*/
FoamFile
{
    version     2.0;
    format      ascii;
    class       dictionary;
    object      airfoilProperties;
}
// * * * * * * * * * * * * * * * * * * * * * * * * * * * * * * * * * * * * * //

airfoilData
(
//   alpha   C_l    C_d
(1.0443     0.35445    0.01374626)
(2.0443     0.46512766 0.01426218)
(3.0443     0.57333585 0.01497149)
(4.0443     0.67839881 0.01588861)
(5.0443     0.77943024 0.01703883)
(6.0443     0.87475104 0.01849774)
(7.0443     0.96357232 0.0203503 )
(8.0443     1.04437716 0.02274325)
(9.0443     1.11461766 0.0258932 )
(10.0443      1.17221646  0.03005045)
);
