/*--------------------------------*- C++ -*----------------------------------*\
| =========                 |                                                 |
| \      /  F ield         | OpenFOAM: The Open Source CFD Toolbox           |
|  \    /   O peration     | Version:  1.6                                   |
|   \  /    A nd           | Web:      http://www.OpenFOAM.org               |
|    \/     M anipulation  |                                                 |
\*---------------------------------------------------------------------------*/
FoamFile
{
    version     2.0;
    format      ascii;
    class       dictionary;
    object      airfoilProperties;
}
// * * * * * * * * * * * * * * * * * * * * * * * * * * * * * * * * * * * * * //

airfoilData
(
//   alpha   C_l    C_d
(3.6367     0.74908484 0.01788468)
(4.6367     0.85750831 0.01900665)
(5.6367     0.96093488 0.0204365 )
(6.6367     1.05772002 0.02225312)
(7.6367    1.1452271 0.0246372)
(8.6367     1.21908861 0.02798367)
(9.6367     1.26458972 0.03367352)
(10.6367      1.23724392  0.04619295)
(11.6367      1.18701798  0.06166345)
(12.6367      1.16301025  0.07524482)
);
