/*--------------------------------*- C++ -*----------------------------------*\
| =========                 |                                                 |
| \      /  F ield         | OpenFOAM: The Open Source CFD Toolbox           |
|  \    /   O peration     | Version:  1.6                                   |
|   \  /    A nd           | Web:      http://www.OpenFOAM.org               |
|    \/     M anipulation  |                                                 |
\*---------------------------------------------------------------------------*/
FoamFile
{
    version     2.0;
    format      ascii;
    class       dictionary;
    object      airfoilProperties;
}
// * * * * * * * * * * * * * * * * * * * * * * * * * * * * * * * * * * * * * //

airfoilData
(
//   alpha   C_l    C_d
(2.5195     0.57605104 0.01918081)
(3.5195     0.68984562 0.01992163)
(4.5195     0.79697014 0.02103012)
(5.5195     0.89616003 0.02255601)
(6.5195     0.98662955 0.02460073)
(7.5195     1.06563365 0.0274061 )
(8.5195     1.12927724 0.03133091)
(9.5195     1.17347292 0.036982  )
(10.5195      1.19417682  0.04501681)
(11.5195      1.19165313  0.05558254)
(12.5195      1.17610019  0.06800513)
(13.5195      1.15864542  0.08137394)
(14.5195      1.39094859  0.10277173)
(15.5195      1.46729881  0.12379751)
(16.5195      1.54435647  0.14543972)
);
