/*--------------------------------*- C++ -*----------------------------------*\
| =========                 |                                                 |
| \\      /  F ield         | OpenFOAM: The Open Source CFD Toolbox           |
|  \\    /   O peration     | Version:  v2212                                 |
|   \\  /    A nd           | Website:  www.openfoam.com                      |
|    \\/     M anipulation  |                                                 |
\*---------------------------------------------------------------------------*/
FoamFile
{
    version     2.0;
    format      ascii;
    class       dictionary;
    object      decomposeParDict;
}

// * * * * * * * * * * * * * * * * * * * * * * * * * * * * * * * * * * * * * //

numberOfSubdomains  128;
method              kahip; 

kahipCoeffs
{
    config          fast; // fast | eco | strong
    imbalance       0.01;
}

constraints
{

    // Keep owner and neighbour on same processor for faces in patches
    // (only makes sense for cyclic patches. Not suitable for e.g.
    // cyclicAMI since these are not coupled on the patch level.
    // Use singleProcessorFaceSets for those.
    patches
    {
        type    preservePatches;
        patches ("cc_.*");
        enabled true;
    }
}

// ************************************************************************* //
