/*--------------------------------*- C++ -*----------------------------------*\
| =========                 |                                                 |
| \\      /  F ield         | OpenFOAM: The Open Source CFD Toolbox           |
|  \\    /   O peration     | Version:  v2312                                 |
|   \\  /    A nd           | Website:  www.openfoam.com                      |
|    \\/     M anipulation  |                                                 |
\*---------------------------------------------------------------------------*/
FoamFile
{
    version     2.0;
    format      ascii;
    class       dictionary;
    object      setFieldsDict;
}
// * * * * * * * * * * * * * * * * * * * * * * * * * * * * * * * * * * * * * //
#include        "${FOAM_CASE}/system/include/caseDefinition"

readFields      ( p T );

expressions
(
    p_rgh
    {
        field       p_rgh;
        dimensions  [ 0 2 -2 0 0 0 0 ];

        constants
        {
        }

        variables
        (
        );

        fieldMask
        #{
        #};

        expression
        #{
            p - (1.225 * (1 - 3.3e-3 * (T - 300))) * 9.81 * pos().z()
        #};
    }
);

// ************************************************************************* //

