/*--------------------------------*- C++ -*----------------------------------*\
| =========                 |                                                 |
| \\      /  F ield         | OpenFOAM: The Open Source CFD Toolbox           |
|  \\    /   O peration     | Version:  2212                                  |
|   \\  /    A nd           | Website:  www.openfoam.com                      |
|    \\/     M anipulation  |                                                 |
\*---------------------------------------------------------------------------*/
FoamFile
{
    version     2.0;
    format      binary;
    arch        "LSB;label=32;scalar=64";
    class       volScalarField;
    location    "0";
    object      epsilon;
}
// * * * * * * * * * * * * * * * * * * * * * * * * * * * * * * * * * * * * * //

#include        "${FOAM_CASE}/system/include/caseDefinition"

// calculate omega value at inlet
Uref            #eval{ sqrt(sqr($Uxref) + sqr($Uyref) + sqr($Uzref)) };
kref            #eval{ 1.5*sqr($Uref*$Tu) };
nutref          #eval{ $viscRatio * $nuref };
epsilonref      #eval{ 0.09*sqr($kref) / $nutref };

dimensions      [ 0 2 -3 0 0 0 0 ];

internalField   uniform $epsilonref;

boundaryField
{
    // inlet
    "ii_.*"
    {
        type            fixedValue;
        value           uniform $epsilonref;
    }

    // outlet
    "oo_.*"
    {
        type            zeroGradient;
    }

    upper
    {
        type            slip;
    }
    
    // mixed inlet-outlet
    "io_.*"
    {
        type            freestream;
        freestreamBC
        {
            type        timeVaryingMappedFixedValue;
            offset      0;
            setAverage  off;
            mapMethod   nearest;
            value       $internalField;
        }
        value           $internalField;
    }

    "ww_.*"
    {
        type            atmEpsilonWallFunction;
        z0              uniform $roughness_z0;
        value           uniform $epsilonref;
    }

    #include            "include/constraintPatches"
}


// ************************************************************************* //
