/*--------------------------------*- C++ -*----------------------------------*\
| =========                 |                                                 |
| \\      /  F ield         | OpenFOAM: The Open Source CFD Toolbox           |
|  \\    /   O peration     | Version:  v2212                                 |
|   \\  /    A nd           | Website:  www.openfoam.com                      |
|    \\/     M anipulation  |                                                 |
\*---------------------------------------------------------------------------*/
FoamFile
{
    version     2.0;
    format      ascii;
    class       volScalarField;
    object      omega;
}
// * * * * * * * * * * * * * * * * * * * * * * * * * * * * * * * * * * * * * //

#include        "${FOAM_CASE}/system/include/caseDefinition"

// calculate omega value at inlet
Uref            #eval{ sqrt(sqr($Uxref) + sqr($Uyref) + sqr($Uzref)) };
kref            #eval{ 1.5*sqr($Uref*$Tu) };
nutref          #eval{ $viscRatio * $nuref };
omegaref        #eval{ $kref / $nutref };

dimensions      [ 0 0 -1 0 0 0 0 ];
internalField   uniform $omegaref;

boundaryField
{
    // inlet
    "ii_.*"
    {
        type        timeVaryingMappedFixedValue;
        offset      0;
        setAverage  off;
        mapMethod   nearest;
        value       $internalField;
    }

    // outlet
    "oo_.*"
    {
        type            zeroGradient;
    }

    upper
    {
        type            slip;
    }

    // no-slip wall
    "ww_.*"
    {
        type            atmOmegaWallFunction;
        z0              uniform $roughness_z0;
        value           $internalField;
    }

    #include            "include/constraintPatches"
}

// ************************************************************************* //
