/*--------------------------------*- C++ -*----------------------------------*\
| =========                 |                                                 |
| \\      /  F ield         | OpenFOAM: The Open Source CFD Toolbox           |
|  \\    /   O peration     | Version:  v2212                                 |
|   \\  /    A nd           | Website:  www.openfoam.com                      |
|    \\/     M anipulation  |                                                 |
\*---------------------------------------------------------------------------*/
FoamFile
{
    version     2.0;
    format      ascii;
    class       dictionary;
    object      controlDict;
}
// * * * * * * * * * * * * * * * * * * * * * * * * * * * * * * * * * * * * * //

#include        "include/caseDefinition"

libs            
(
    distributed 
    SOWFATurbineModelsStandard
    OGL    
);

application       pimpleALMFoam;

startFrom         latestTime;
startTime         0;
stopAt            endTime;

endTime           $tEnd;
deltaT            $dt;

writeControl      timeStep;
writeInterval     $fieldOutInterval;

purgeWrite        2;   

writeFormat       binary;
writePrecision    15;
writeCompression  off;

timeFormat        general;
timePrecision     8; 

runTimeModifiable true;

OptimisationSwitches
{
    fileModificationSkew  60;
    //commsType  scheduled; //blocking;
}

functions
{
    // STANDARD OUTPUTS
    #include "outputDefs/volFields"
    #include "outputDefs/wallFields"
    #include "outputDefs/solverInfo"
    #include "outputDefs/fieldMinMax"

    // OPTIONAL OUTPUTS
    #include "outputDefs/probes"
    #include "outputDefs/sample"

}

// ************************************************************************* //
