/*--------------------------------*- C++ -*----------------------------------*\
| =========                 |                                                 |
| \\      /  F ield         | OpenFOAM: The Open Source CFD Toolbox           |
|  \\    /   O peration     | Version:  v2212                                 |
|   \\  /    A nd           | Website:  www.openfoam.com                      |
|    \\/     M anipulation  |                                                 |
\*---------------------------------------------------------------------------*/
FoamFile
{
    version     2.0;
    format      ascii;
    class       dictionary;
    object      fvSchemes;
}
// * * * * * * * * * * * * * * * * * * * * * * * * * * * * * * * * * * * * * //

#include        "${FOAM_CASE}/system/include/caseDefinition"

// calculate velocity magnitude value at inlet
Uref            #eval{ sqrt(sqr($Uxref) + sqr($Uyref) + sqr($Uzref)) };

ddtSchemes
{
    default                       bounded backward 1; 
}

gradSchemes
{
    default                       Gauss linear;
    grad(U)                       cellLimited Gauss linear 1;
    grad(k)                       cellLimited Gauss linear 1;
    grad(omega)                   cellLimited Gauss linear 1;
    grad(nuTilda)                 cellLimited Gauss linear 1;
}

divSchemes
{
    default                       none;

    div(phi,U)                    bounded Gauss linearUpwindV grad(U);

    turbulence                    bounded Gauss upwind;  
    div(phi,k)                    $turbulence;
    div(phi,omega)                $turbulence;
    div(phi,nuTilda)              $turbulence;

    div((nuEff*dev2(T(grad(U))))) Gauss linear;
}

laplacianSchemes
{
    default                       Gauss linear limited corrected 0.33;  
}

interpolationSchemes
{
    default                       linear;
}

snGradSchemes
{
    default                       limited corrected 0.33;   
}

fluxRequired
{
    default                       no;
    p;
}

wallDist
{
    method                        meshWave;
    nRequired                     true;
    updateInterval                0;
}

// ************************************************************************* //
