/*--------------------------------*- C++ -*----------------------------------*\
| =========                 |                                                 |
| \\      /  F ield         | OpenFOAM: The Open Source CFD Toolbox           |
|  \\    /   O peration     | Version:  v2212                                 |
|   \\  /    A nd           | Website:  www.openfoam.com                      |
|    \\/     M anipulation  |                                                 |
\*---------------------------------------------------------------------------*/
FoamFile
{
    version     2.0;
    format      ascii;
    class       dictionary;
    object      topoSetDict;
}
// * * * * * * * * * * * * * * * * * * * * * * * * * * * * * * * * * * * * * //

actions
(
    // rotatingZone
 /*   {
        name    rotatingZoneCellSet;
        type    cellSet;
        action  new;
        source  regionToCell;
        set     region0;
        insidePoints ((0 1.0 0));
    }  
    {
        name    rotatingZone;
        type    cellZoneSet;
        action  new;
        source  setToCellZone;
        set     region0;
    } */
{
    // Mandatory (inherited) entries
    name        ALMdisk;
    type        faceSet;
    action      new;

    // Mandatory entries
    source      cylinderToFace;
    p1          (-1.0 0 0);
    p2          (1.0 0 0);
    radius      50;
}

);


// ************************************************************************* //
