/*--------------------------------*- C++ -*----------------------------------*\
| =========                 |                                                 |
| \\      /  F ield         | OpenFOAM: The Open Source CFD Toolbox           |
|  \\    /   O peration     | Version:  2412                                  |
|   \\  /    A nd           | Website:  www.openfoam.com                      |
|    \\/     M anipulation  |                                                 |
\*---------------------------------------------------------------------------*/
FoamFile
{
    version     2.0;
    format      ascii;
    arch        "LSB;label=32;scalar=64";
    note        "face data";
    class       scalarField;
    location    "/work/hetmann/EXASIM/WP5/basicSetup_Perdigao_v2/00_caseFiles/minimumExample/postProcessing/surfaces/precursor_profile/450000";
    object      alphat;
}
// * * * * * * * * * * * * * * * * * * * * * * * * * * * * * * * * * * * * * //


320
(
0.4719795141671823
0.4719795147011009
0.8577122088332968
0.8577122098514502
1.249277733388219
1.24927773495259
1.651771676200848
1.651771678387057
2.063438628983278
2.063438631871739
2.482833495790136
2.482833499464832
2.90892444763427
2.908924452182438
3.340921909040318
3.340921914551882
3.778163279250134
3.778163285817446
4.220046224150177
4.220046231867371
4.665990128619137
4.665990137581007
5.115413309803412
5.115413320105691
5.567719283139181
5.567719294877541
6.022288462908588
6.02228847617746
6.478473301680429
6.478473316573425
6.935595736626582
6.935595753235317
7.392946281967319
7.392946300380551
7.849784370471228
7.849784390774812
8.305339697366611
8.305339719642273
8.758814406673512
8.758814430998097
9.209386009584438
9.209386036030239
9.656210951928372
9.656210980562726
10.09842876158988
10.09842879247373
10.53516671208159
10.53516674526979
10.96554493848542
10.9655449740259
11.3886819387621
11.38868197669617
11.80370038838159
11.80370042874328
12.20973319038249
12.20973323319883
12.60592967712493
12.60592972241593
12.99146187474851
12.99146192252712
13.36553073720301
13.36553078747412
13.72737225409537
13.72737230685845
14.07626333576293
14.07626339101011
14.41152738021077
14.41152743792786
14.73253942993279
14.73253949009948
15.03873083224969
15.03873089484048
15.32959332455356
15.32959338953869
15.60468247566052
15.60468254300298
15.86362042605516
15.86362049571521
16.10609788295814
16.10609795489077
16.33187534037949
16.33187541453842
16.54078350936479
16.54078358569914
16.73272295895169
16.73272303740788
16.90766298355933
16.90766306408238
17.06563972716364
17.06563980969305
17.2067536082366
17.20675369271451
17.33116610178381
17.33116618814836
17.43909458620903
17.43909467439455
17.53081077466248
17.53081086461145
17.60663511436019
17.60663520600853
17.66693050945262
17.66693060273872
17.71209771234833
17.71209780721074
17.74256986500288
17.74256996138342
17.75880697020313
17.75880706804755
17.76129037604662
17.76129047530419
17.75051735162524
17.75051745225412
17.72699582541728
17.72699592738688
17.69123935036236
17.69123945365211
17.64376235131416
17.643762455919
17.58507570181654
17.58507580775595
17.51568266821444
17.51568277553337
17.43607525013446
17.43607535890518
17.34673093771744
17.34673104805044
17.24810989768641
17.24811000973894
17.14065259261712
17.14065270659696
17.02477783069757
17.02477794687179
16.90088123697856
16.90088135568393
16.76933413157092
16.76933425321999
16.63048279555936
16.6304829206484
16.48464810147942
16.48464823059494
16.33212548216181
16.33212561598951
16.17318520939794
16.17318534872167
16.00807295228188
16.00807309798641
15.83701058420505
15.83701073727698
15.66019720714296
15.66019736866079
15.47781036218342
15.4778105333113
15.29000739598742
15.29000757796138
15.09692695410503
15.09692714821971
14.89869057365583
14.89869078125199
14.69540434979357
14.69540457225281
14.4871606525463
14.48716089129858
14.27403987298099
14.27404012953545
14.05611218016265
14.05611245616935
13.8334392729442
13.83343957029765
13.60607611325784
13.6060764342269
13.37407263013727
13.37407297748728
13.13747538620579
13.13747576317071
12.89632920062336
12.89632961042996
12.65067872282911
12.65067916787056
12.40056995256274
12.40057043450429
12.14605171473194
12.14605223553544
11.88717707893318
11.88717764117073
11.62400472423347
11.62400533122336
11.35660024661538
11.35660090239726
11.08503740375285
11.08503811294171
10.80939928989755
10.80940005745713
10.52977943632041
10.52978026730866
10.24628285172802
10.24628375104773
9.959027082814064
9.959028055014919
9.668143564016546
9.668144613179145
9.373780023328672
9.373781153054496
9.076105962973429
9.076107176518502
8.775326295827728
8.775327596446004
8.471715577875035
8.471716969609815
8.165702768219518
8.165704258000524
7.85723775876148
7.857239359178674
7.546378501294765
7.546380194963598
7.233878781481564
7.233880571404857
6.919981519884088
6.91998341067663
6.605009259781248
6.605011254396798
6.289342965248606
6.289345062246001
5.97341021958537
5.973412409653859
5.657678730348948
5.657680990942104
5.342652302384773
5.342654588849698
5.02886716066163
5.028869390685053
4.716887211808491
4.716889235716165
4.407299389714207
4.407300927801466
4.100721733714723
4.100722234902997
3.797883030279758
3.797881375071878
3.499988824064445
3.499983115709792
3.20734736459263
3.207337806726759
2.920518865711441
2.920505265636564
2.640667818183937
2.640647658429333
2.3682860471425
2.36825790754841
2.103718142388694
2.103685051735068
1.847255019333005
1.84722895551353
1.596557916476396
1.596547083168994
1.351469594797913
1.351496169977983
1.134099172498866
1.134154073220339
0.9851817382049939
0.9851173458132876
0.9122943730835607
0.9121885104311653
0.8855420001555795
0.8854619100512331
0.8776885947086059
0.8776199630388364
0.8765098817516757
0.8764564945164567
0.8788152164821121
0.8788120883269814
0.8836187888800369
0.8836652622307293
0.8890278819607127
0.8890794466483785
0.8941186194503346
0.8941431159405044
0.8998096026233026
0.8998103682518732
0.9070153723083779
0.9070066118772973
0.9157388405697013
0.9157303487308418
0.9255389387652171
0.9255345325978029
0.935922988142631
0.9359211370526981
0.9464662403420572
0.9464632538406874
0.9568403576911408
0.9568344845627231
0.9666998920369159
0.9666927744926678
0.9755001194829889
0.9754949356143324
0.9824735076370428
0.9824732459648118
0.9866979048074257
0.9867044504780718
0.9871114794551881
0.9871249323861999
0.9824779985382888
0.9824973076337531
0.9712367341647725
0.9712602369533387
0.9512852957806033
0.9513107530631575
0.9197494545598912
0.9197746081660656
0.8725570845224625
0.8725791437805065
0.8040351946283101
0.8040519477233805
0.707204879867136
0.7072157196187016
0.5522334472686605
0.5522296508508721
0.420031201735575
0.420025202557873
0.03033416172239354
0.0303334533417485
)


// ************************************************************************* //
