/*--------------------------------*- C++ -*----------------------------------*\
| =========                 |                                                 |
| \\      /  F ield         | OpenFOAM: The Open Source CFD Toolbox           |
|  \\    /   O peration     | Version:  2412                                  |
|   \\  /    A nd           | Website:  www.openfoam.com                      |
|    \\/     M anipulation  |                                                 |
\*---------------------------------------------------------------------------*/
FoamFile
{
    version     2.0;
    format      ascii;
    arch        "LSB;label=32;scalar=64";
    note        "face data";
    class       scalarField;
    location    "/work/hetmann/EXASIM/WP5/basicSetup_Perdigao_v2/00_caseFiles/minimumExample/postProcessing/surfaces/precursor_profile/450000";
    object      epsilon;
}
// * * * * * * * * * * * * * * * * * * * * * * * * * * * * * * * * * * * * * //


320
(
0.205011671047945
0.2050116678490895
0.1154456980418341
0.1154456962906153
0.07764267104928092
0.07764266990154807
0.05763657061444964
0.0576365697811568
0.04542946233788164
0.04542946169176819
0.03725911919586256
0.03725911867070286
0.03142896188403047
0.03142896144135708
0.02707010180453298
0.02707010142026615
0.02369407763309789
0.02369407729136174
0.02100611774635133
0.02100611743629561
0.01881816171171342
0.01881816142574192
0.01700473840733902
0.01700473814005753
0.01547900126140616
0.01547900100896377
0.01417896326830657
0.01417896302796737
0.01305921358739293
0.01305921335724619
0.01208573250919427
0.01208573228795379
0.0112325344510189
0.01123253423788195
0.01047943002010059
0.01047942981464591
0.009810495469675752
0.00981049527178901
0.009213002082327514
0.009213001892146884
0.00867665212361138
0.008676651941486136
0.008193023726766748
0.008193023553226072
0.007755161025820738
0.007755160861550299
0.007357267091626249
0.007357266937449499
0.006994470820981737
0.006994470677845252
0.006662647818203984
0.006662647687165298
0.006358281233201715
0.006358281115417426
0.006078352538733838
0.006078352435448961
0.005820254999511712
0.005820254912049062
0.005581724523557535
0.005581724453305664
0.005360783960446569
0.005360783908846872
0.00515569789803573
0.00515569786656797
0.004964935726512198
0.00496493571667734
0.004787141265533435
0.004787141278834572
0.004621107641321539
0.004621107679243038
0.004465756393622684
0.004465756457606168
0.004320120013974821
0.004320120105392712
0.004183327285591789
0.004183327405717783
0.004054590924888555
0.004054591074866437
0.003933197125036652
0.003933197305847329
0.003818496680106588
0.003818496892533402
0.003709897429614657
0.003709897674207201
0.003606857811568842
0.003606858088606709
0.003508881350361225
0.003508881659818061
0.003415511936296599
0.003415512277804381
0.003326329777883067
0.003326330150699603
0.003240947927556805
0.003240948330537478
0.003159010932435474
0.003159011363999334
0.003080188496632087
0.003080188954774156
0.003004174945316044
0.003004175427556161
0.002930688844603337
0.002930689347997755
0.002859470322114909
0.002859470843261214
0.002790279654302765
0.002790280189354684
0.00272289604237211
0.002722896587066345
0.002657116546646293
0.002657117096342143
0.002592755152781969
0.002592755702512869
0.002529641946367302
0.002529642490906943
0.002467622375231315
0.002467622909172429
0.002406556581332874
0.002406557099179874
0.002346318786449306
0.002346319282725427
0.002286796718079813
0.00228679718744695
0.002227891064048305
0.002227891501438324
0.002169514946245735
0.002169515347003335
0.002111593405799273
0.002111593765833104
0.002054062893681319
0.002054063209621767
0.001996870762368899
0.001996871031731239
0.001939974755621959
0.001939974976968272
0.001883342494737852
0.001883342667835272
0.001826950960759912
0.001826951086730848
0.001770785973050668
0.001770786054505348
0.001714841665367986
0.001714841706513464
0.001659119961120835
0.00165911996783842
0.001603630049823161
0.001603630029700843
0.001548387866916639
0.001548387829223543
0.001493415579119152
0.001493415534705945
0.001438741077294027
0.001438741038402678
0.001384397478544718
0.001384397458505063
0.001330422638865266
0.001330422651654317
0.001276858677223116
0.001276858736864263
0.001223751511469752
0.001223751631248042
0.001171150405985718
0.001171150597461896
0.001119107530489596
0.001119107802308362
0.001067677529011745
0.00106767788552469
0.001016917097658599
0.001016917537428757
0.0009668845694875913
0.0009668850838160054
0.0009176395045805894
0.0009176400763058583
0.0008692422831889329
0.000869242886159574
0.0008217537021575758
0.0008217543028156162
0.0007752346614248649
0.0007752352280801498
0.0007297457064300036
0.0007297462111369881
0.000685346585009859
0.0006853470037364519
0.0006420958362690411
0.0006420961494255331
0.0006000503719687121
0.0006000505644784052
0.0005592650498779652
0.0005592651108305995
0.000519792238722933
0.0005197921605808781
0.0004816813739195842
0.0004816811513789414
0.0004449785022527359
0.0004449781309531231
0.0004097258110716224
0.0004097252863901737
0.0003759611319573134
0.0003759604481101125
0.0003437173973643118
0.0003437165469795718
0.0003130220062215592
0.0003130209804488811
0.0002838960112215783
0.0002838948003425784
0.0002563529591088364
0.0002563515535353241
0.0002303970653812148
0.0002303954569021217
0.0002060201372020233
0.0002060183204156303
0.0001833102069467934
0.0001833081790893289
0.0001622139358216629
0.0001622116964281624
0.0001426702960921761
0.0001426678510951044
0.0001246642727501864
0.0001246616327417453
0.0001081688121044691
0.0001081659919829191
9.314701027917643e-05
9.314402901672255e-05
7.955347829805812e-05
7.955035872425781e-05
6.733528381323503e-05
6.733205243558456e-05
5.643271046812908e-05
5.642939736467195e-05
4.677997657929654e-05
4.677661535009662e-05
3.830599580824739e-05
3.830262346469961e-05
3.093523675583966e-05
3.093189324325862e-05
2.458875597135351e-05
2.458548287240825e-05
1.918556491639372e-05
1.91824040340554e-05
1.4644582754979e-05
1.4641585124104e-05
1.088652619602218e-05
1.088379695085832e-05
7.832075870017594e-06
7.829671807288401e-06
5.405880573792013e-06
5.403862976633959e-06
3.539172876980127e-06
3.537604488000635e-06
2.169627481331737e-06
2.168562279985325e-06
1.238444891623124e-06
1.237914317945607e-06
6.779217251091032e-07
6.77901189971233e-07
4.236164623384807e-07
4.23911146254286e-07
3.85295566528182e-07
3.857795682288196e-07
4.73497638677428e-07
4.740616262284013e-07
6.031547204089757e-07
6.03745289083209e-07
7.354678981871953e-07
7.360525488978002e-07
8.510459663371594e-07
8.515980964930849e-07
9.394819510514376e-07
9.399680141553299e-07
9.934267323894345e-07
9.938146992260758e-07
1.009634231394794e-06
1.009895427985529e-06
9.877691009375363e-07
9.878837158810212e-07
9.311208175528898e-07
9.310878401183387e-07
8.495831798658235e-07
8.494392578467395e-07
7.634334756112966e-07
7.632630673450379e-07
6.970030784644196e-07
6.968946683296902e-07
6.624915706314337e-07
6.624812910368389e-07
6.558293423368112e-07
6.559041881281568e-07
6.656881911046031e-07
6.658171253209972e-07
6.812774987023142e-07
6.814307798777079e-07
6.950453672759803e-07
6.952005921406846e-07
7.027284286978506e-07
7.028708834125777e-07
7.026692741394292e-07
7.027908531180294e-07
6.950758663718806e-07
6.951739480238752e-07
6.813054856341846e-07
6.813818968045526e-07
6.629730994936648e-07
6.630363194899149e-07
6.415239577401972e-07
6.415749334022493e-07
6.168581644199643e-07
6.169006206236114e-07
5.871916448611543e-07
5.872340771983757e-07
5.49027279251008e-07
5.490740290703214e-07
4.982350192068867e-07
4.982896831930114e-07
4.325470950719933e-07
4.326093234616494e-07
3.382181119132115e-07
3.382986399571557e-07
2.785430390361267e-07
2.786276297124202e-07
7.980130897440293e-08
7.98134298215427e-08
)


// ************************************************************************* //
