/*--------------------------------*- C++ -*----------------------------------*\
| =========                 |                                                 |
| \\      /  F ield         | OpenFOAM: The Open Source CFD Toolbox           |
|  \\    /   O peration     | Version:  2412                                  |
|   \\  /    A nd           | Website:  www.openfoam.com                      |
|    \\/     M anipulation  |                                                 |
\*---------------------------------------------------------------------------*/
FoamFile
{
    version     2.0;
    format      ascii;
    arch        "LSB;label=32;scalar=64";
    note        "face data";
    class       scalarField;
    location    "/work/hetmann/EXASIM/WP5/basicSetup_Perdigao_v2/00_caseFiles/minimumExample/postProcessing/surfaces/precursor_profile/450000";
    object      k;
}
// * * * * * * * * * * * * * * * * * * * * * * * * * * * * * * * * * * * * * //


320
(
0.8919596860205665
0.8919596766848841
0.9023064277123107
0.9023064181990257
0.8930466694273524
0.8930466598430422
0.8847458821260132
0.8847458723894485
0.8779284298386636
0.8779284198710005
0.8721369527344651
0.8721369424681356
0.8670135811913948
0.8670135705694695
0.8623286854036758
0.8623286743790751
0.8579363295191407
0.8579363180542577
0.8537414477414221
0.8537414358079594
0.8496800983898414
0.8496800859687961
0.8457078548997772
0.8457078419815247
0.8417928731987065
0.8417928597831328
0.8379116431550374
0.8379116292517798
0.8340463114516889
0.8340462970803866
0.8301829485356661
0.8301829337262836
0.8263103981069397
0.8263103829002194
0.8224194954458743
0.8224194798938138
0.8185025249912137
0.8185025091575964
0.8145528366381181
0.8145528205991239
0.8105645695509973
0.8105645533957988
0.8065324502338158
0.8065324340651847
0.8024516428320494
0.8024516267670067
0.7983176368156608
0.7983176209860701
0.7941261618657942
0.7941261464189433
0.7898731228863669
0.7898731079854886
0.7855545501507529
0.7855545359753398
0.7811665610234277
0.7811665477694694
0.7767053306893646
0.7767053185694264
0.7721670700220964
0.7721670592650931
0.7675480092179769
0.7675480000687369
0.7628443861810238
0.7628443788995465
0.7580524389011212
0.7580524337613983
0.7531684012565902
0.7531683985450863
0.7481885018091248
0.7481885018228551
0.7431089652591445
0.7431089683032437
0.7379260163014667
0.7379260226862423
0.7326358856717511
0.7326358957091518
0.7272348182085275
0.727234832208135
0.7217190827774851
0.7217191010419586
0.7160849839161177
0.7160850067360724
0.710328875060656
0.7103289027089621
0.7044471732143772
0.7044472059400283
0.6984363749095374
0.6984364129310717
0.692293073304002
0.6922931168024173
0.6860139762398128
0.6860140253513433
0.6795959250773109
0.6795959798861606
0.6730360623433769
0.6730361228734716
0.6663315094306819
0.6663315756413193
0.6594795353654417
0.6594796071407918
0.6524777176701391
0.6524777948143226
0.6453238664820276
0.645323948713495
0.6380160436146149
0.6380161305614859
0.6305525808339465
0.630552672030688
0.6229320971326245
0.6229321920183399
0.6151535148029659
0.6151536127213963
0.607216074135581
0.607216174337313
0.5991193466006417
0.5991194482476403
0.590863246405715
0.5908633485784737
0.5824480403653183
0.5824481420731555
0.5738743560622181
0.5738744562566547
0.5651431883269296
0.5651432859184722
0.5562559041091757
0.5562559979877498
0.5472142458610305
0.5472143349200259
0.5380203335939476
0.5380204167580299
0.5286766658094102
0.5286767420661971
0.5191861195343738
0.5191861879694594
0.5095519497149232
0.5095520095501862
0.4997777882355765
0.4997778388703225
0.489867642835604
0.4898676838894315
0.4798258961861004
0.4798259275427016
0.4696573053748956
0.4696573272255256
0.4593670020195632
0.4593670149040818
0.4489604931926149
0.44896049803569
0.4384436632994394
0.4384436614388793
0.4278227769999873
0.4278227702035952
0.417104483210366
0.4171044736765136
0.4062958201650628
0.4062958105013187
0.3954042214617243
0.3954042146354808
0.3844375229543582
0.3844375222084427
0.3734039703070348
0.3734039790336939
0.3623122269693713
0.3623122485370461
0.3511713822906394
0.3511714198209676
0.3399909594499977
0.3399910155489009
0.3287809228479106
0.3287809993050443
0.3175516845792982
0.3175517820664179
0.3063141095900094
0.3063142274108421
0.2950795194846083
0.2950796555810265
0.2838597077846511
0.2838598594275753
0.2726669314949662
0.2726670957538926
0.2615139020122854
0.2615140759119188
0.2504137776623113
0.25041395824637
0.2393801515992156
0.2393803359468669
0.2284270345551596
0.2284272197451596
0.2175688316444577
0.2175690146505911
0.206820312170569
0.2068204896931972
0.1961965709789765
0.1961967392364942
0.185712979179038
0.1857131336960544
0.1753851207948769
0.1753852562296127
0.1652287097150076
0.1652288197650514
0.1552594776128791
0.1552595550249908
0.1454930175466891
0.1454930542386772
0.1359445591443903
0.1359445464285924
0.1266286406912533
0.1266285695755187
0.1175586385122975
0.1175585000496738
0.108771775363654
0.1087715605978964
0.1002731000888126
0.1002728009333606
0.09206545852835009
0.09206506755238703
0.08416427982753341
0.08416379050297658
0.07658328419643318
0.07658269094581735
0.06933464205698349
0.06933394029192977
0.06242899848713897
0.06242818464836068
0.05587541373931751
0.05587448536801498
0.04968125454977131
0.04968021042391783
0.0438520620365753
0.04385090240113457
0.03839142049354534
0.03839014739937525
0.03330086185145933
0.03329947960761268
0.0285798748910928
0.02857839073657759
0.02422615951989939
0.02422458545818072
0.02023630195794706
0.02023466218038448
0.01660641703477538
0.01660475706991686
0.01333197533666055
0.01333034339825691
0.01041077992834914
0.01040924496188663
0.007847705715649082
0.007846367863614943
0.005660027975147322
0.005659030166746262
0.003882718846923598
0.003882254101112155
0.002562607531344652
0.00256286372979514
0.001785726808037897
0.001786652138216481
0.001570811983860005
0.001572159126177651
0.00176602223400604
0.001767415376787001
0.002101612798550011
0.002102896752657606
0.002437929495525721
0.002439066871694123
0.002717768129887397
0.002718749370082646
0.002918454697449158
0.002919258597352862
0.003028062884578837
0.003028662727649817
0.003042926286135894
0.003043295094041574
0.002964610744452266
0.002964729663840025
0.002802683682929838
0.002802561505147641
0.002583072057603863
0.002582779215559226
0.002357652616138043
0.002357340392494744
0.002189486245513318
0.002189314415297621
0.002110442394762725
0.002110473037248886
0.002107218794101819
0.002107417634810785
0.002146043280415691
0.002146343203649061
0.002195915443149575
0.002196257014657298
0.002236284994527478
0.002236627112542462
0.002256396496451643
0.002256714675080815
0.002252702285831711
0.002252984734902636
0.002226508602001772
0.002226753103060579
0.002181962058149738
0.002182173689675881
0.002123706475928415
0.002123899816767927
0.002055335800976949
0.00205551540003561
0.001975806202814618
0.001975980231739245
0.001878431008288946
0.001878613454002433
0.001750280666580822
0.001750480656675562
0.001574192457700326
0.001574418425750662
0.001334285777213777
0.001334538392222572
0.0009854646606010545
0.0009857587663184117
0.0007356030077868751
0.0007358807500245807
0.0001197996089646024
0.000119822470762876
)


// ************************************************************************* //
