/*--------------------------------*- C++ -*----------------------------------*\
| =========                 |                                                 |
| \\      /  F ield         | OpenFOAM: The Open Source CFD Toolbox           |
|  \\    /   O peration     | Version:  2412                                  |
|   \\  /    A nd           | Website:  www.openfoam.com                      |
|    \\/     M anipulation  |                                                 |
\*---------------------------------------------------------------------------*/
FoamFile
{
    version     2.0;
    format      ascii;
    arch        "LSB;label=32;scalar=64";
    note        "face data";
    class       scalarField;
    location    "/work/hetmann/EXASIM/WP5/basicSetup_Perdigao_v2/00_caseFiles/minimumExample/postProcessing/surfaces/precursor_profile/450000";
    object      nut;
}
// * * * * * * * * * * * * * * * * * * * * * * * * * * * * * * * * * * * * * //


320
(
0.349264840483771
0.3492648408788589
0.6347070345367469
0.6347070352901536
0.9244655227074374
0.9244655238650791
1.222311040388854
1.222311042006713
1.526944585447937
1.526944587585461
1.837296786885153
1.837296789604463
2.152604091249941
2.152604094615529
2.472282212690476
2.472282216769172
2.795840826645966
2.795840831505706
3.122834205872192
3.122834211582853
3.45283269517942
3.452832701811181
3.785405849255967
3.785405856879555
4.120112269524735
4.120112278210893
4.456493462554187
4.456493472372854
4.794070243245569
4.794070254266385
5.132340845105678
5.132340857396304
5.470780248658047
5.470780262283793
5.808840434151257
5.808840449175747
6.145951376053866
6.145951392537306
6.481522660941234
6.48152267894133
6.814945647095303
6.814945666665455
7.14559610442983
7.145596125619635
7.472837283579539
7.472837306433722
7.796023366943601
7.796023391502775
8.114503254482228
8.114503280782461
8.42762463468717
8.427624662758696
8.734738287405904
8.734738317273376
9.035202560886091
9.035202592570592
9.328387961075741
9.328387994591301
9.613681787316995
9.613681822673225
9.890492745533141
9.890492782734132
10.15825546803356
10.15825550707824
10.4164348684677
10.41643490935025
10.66453026135835
10.66453030406963
10.90207917815243
10.90207922267638
11.1286608158668
11.12866086218429
11.34389906017176
11.34389910826039
11.54746503199051
11.54746508182364
11.73907911528189
11.73907916683046
11.91851243338977
11.91851248662031
12.08558775188137
12.08558780675908
12.24017979692975
12.2401798534172
12.38221498962305
12.382215047681
12.51167060783268
12.51167066741928
12.62857339809863
12.62857345917081
12.73299767009197
12.73299773260575
12.82506291531631
12.82506297922589
12.90492999378968
12.90493005904776
12.97279997324413
12.97280003980631
13.0289099846192
13.0289100524393
13.07352857698629
13.07352864601853
13.10695230712775
13.10695237732628
13.12950170009059
13.12950177141251
13.14151715793761
13.14151723034218
13.14335487825982
13.14335495171047
13.13538284018587
13.13538291465223
13.11797691079027
13.11797698624791
13.09151711924873
13.09151719568266
13.05638413995053
13.05638421735849
13.01295601932032
13.01295609771621
12.96160517445319
12.96160525386894
12.90269568507247
12.90269576556216
12.83658089388172
12.83658097552865
12.7636013242576
12.76360140717633
12.68408291850541
12.68408300285031
12.59833559468369
12.5983356806531
12.50665211533093
12.5066522031732
12.40930725732972
12.40930734735039
12.30655726868173
12.30655736124746
12.1986395950628
12.19863969060871
12.08577285677005
12.08577295580217
11.96815705492683
11.968157158026
11.84597398466458
11.84597409248612
11.7193878322917
11.71938794556484
11.5885459332704
11.58854605279387
11.45357966800627
11.45357979464123
11.31460547302796
11.31460560768923
11.17172594604336
11.17172608968836
11.02503102452026
11.02503117814114
10.87459921887289
10.8745993834925
10.72049888292134
10.72049905959815
10.56278950605621
10.56278969590598
10.40152301338429
10.40152321762946
10.23674506205803
10.23674528209994
10.06849632390633
10.06849656142428
9.896813746415448
9.89681400345513
9.721731785925623
9.721732064879632
9.543283608615534
9.543283911872233
9.361502255070306
9.361502584400833
9.176421765096066
9.176422121733866
8.988078269126088
8.988078654521388
8.796511038662143
8.796511454717749
8.601763496212115
8.601763945384644
8.403884182803893
8.403884668083489
8.202927679117614
8.202928203917857
7.998955474897713
7.998956042892672
7.792036783286266
7.792037398218105
7.582249310725684
7.582249976222833
7.369680041769649
7.369680761199033
7.154426237902373
7.154427014283428
6.936597217839722
6.936598053837661
6.716318413226523
6.716319311250694
6.493741459592447
6.493742422050872
6.269069528365524
6.269070558250588
6.042620049283618
6.042621151722731
5.814355942354359
5.814357126664394
5.584320091904136
5.584321345220717
5.353070299325044
5.353071623870085
5.120786325833912
5.120787725022334
4.887706853457778
4.887708329475513
4.654113795613357
4.654115347394232
4.420323563943525
4.420325184596963
4.186682262041103
4.18668393488327
3.953562705492474
3.953564397479941
3.7213617007749
3.721363350996111
3.490496538793672
3.490498036490107
3.261401550626179
3.261402688815547
3.0345340853761
3.034534456260823
2.810433445018372
2.810432220170602
2.58999173256204
2.589987508385446
2.373437052670995
2.373429979857397
2.161183963522327
2.161173899474822
1.954094188209304
1.95407926999931
1.752531677195013
1.752510853903776
1.556751426677907
1.556726939602161
1.366968713661624
1.366949426440954
1.181452854414605
1.181444837772788
1.000087492224091
1.000107157855648
0.8392333773124812
0.8392740038449809
0.729034476798041
0.7289868264259796
0.675097828356557
0.6750194899913162
0.6553010739045639
0.6552418072242983
0.6494895550837719
0.649438767646187
0.6486173085210639
0.6485778019640344
0.6503232572053457
0.6503209423684668
0.6538779017809845
0.6539122920595173
0.6578806316961927
0.6579187895652995
0.6616477784188562
0.6616659058229273
0.6658591066386447
0.6658596732057149
0.6711913762157723
0.6711848934982503
0.6776467420185056
0.6776404580580719
0.6848988136996543
0.6848955531350978
0.6925830094536299
0.6925816396458502
0.7003850156452647
0.7003828056327364
0.708061862338353
0.7080575162217414
0.7153579177972464
0.7153526508129071
0.7218700862593352
0.7218662501950186
0.7270303937061786
0.7270302000672968
0.7301564478601883
0.7301612916550833
0.7304624933688374
0.7304724485364715
0.7270337177581818
0.7270480064879101
0.7187151823810491
0.7187325744427158
0.7039511182043645
0.7039699565922048
0.6806145957415111
0.680633209408769
0.645692241662319
0.6457085655120244
0.5949860424553853
0.594998439744526
0.5233316083950531
0.523339629810067
0.4086527468629128
0.4086499375124766
0.3108230840353421
0.3108186446426181
0.02244727948055952
0.02244675527874376
)


// ************************************************************************* //
