/*--------------------------------*- C++ -*----------------------------------*\
| =========                 |                                                 |
| \\      /  F ield         | OpenFOAM: The Open Source CFD Toolbox           |
|  \\    /   O peration     | Version:  2412                                  |
|   \\  /    A nd           | Website:  www.openfoam.com                      |
|    \\/     M anipulation  |                                                 |
\*---------------------------------------------------------------------------*/
FoamFile
{
    version     2.0;
    format      ascii;
    arch        "LSB;label=32;scalar=64";
    note        "face data";
    class       scalarField;
    location    "/work/hetmann/EXASIM/WP5/basicSetup_Perdigao_v2/00_caseFiles/minimumExample/postProcessing/surfaces/precursor_profile/450000";
    object      p_rgh;
}
// * * * * * * * * * * * * * * * * * * * * * * * * * * * * * * * * * * * * * //


320
(
-8.379491240220028e-10
-8.438068903826413e-10
-8.377025330728136e-10
-8.43453212420144e-10
-8.373229967942934e-10
-8.417684000924922e-10
-8.37407401556684e-10
-8.420654557783269e-10
-8.367958191783508e-10
-8.422250480215701e-10
-8.362527873327663e-10
-8.429936073251228e-10
-8.35966775214836e-10
-8.432360991949734e-10
-8.366398107808505e-10
-8.430204537728293e-10
-8.364572317414816e-10
-8.430282685913688e-10
-8.375788498760383e-10
-8.429339266408468e-10
-8.379667839731351e-10
-8.432772982743764e-10
-8.378365549393299e-10
-8.423317486416059e-10
-8.379802424380326e-10
-8.421624992514178e-10
-8.379650767018181e-10
-8.433640880596527e-10
-8.384040655406239e-10
-8.422904330373574e-10
-8.395542310540838e-10
-8.419779366222966e-10
-8.39884452290516e-10
-8.4147836853297e-10
-8.401923899002684e-10
-8.406135442821032e-10
-8.393970539822649e-10
-8.393426559226514e-10
-8.392537231472549e-10
-8.405907263506791e-10
-8.395587431905435e-10
-8.414864508137979e-10
-8.402838580386281e-10
-8.421876696789857e-10
-8.406432926324887e-10
-8.429163252933405e-10
-8.417284294278896e-10
-8.418248460254681e-10
-8.41760989619501e-10
-8.429891632488365e-10
-8.414338867225549e-10
-8.432348593482786e-10
-8.414787166444295e-10
-8.423317520496451e-10
-8.418876812756458e-10
-8.432672360808181e-10
-8.423040226306473e-10
-8.438782704908067e-10
-8.422625716317873e-10
-8.439239913454799e-10
-8.427962977590632e-10
-8.449424416138723e-10
-8.417046786547352e-10
-8.455740499380828e-10
-8.402623282304363e-10
-8.4267762387233e-10
-8.401652291061468e-10
-8.419805438397033e-10
-8.403859246047837e-10
-8.417182034877273e-10
-8.39882953630531e-10
-8.415273922282439e-10
-8.402784762029673e-10
-8.418054615450495e-10
-8.41544768576486e-10
-8.402337668014605e-10
-8.420756955160172e-10
-8.387700149098271e-10
-8.422625521727521e-10
-8.367254817189855e-10
-8.416629975070008e-10
-8.362997445165654e-10
-8.448526265170032e-10
-8.366872305783897e-10
-8.434687841478253e-10
-8.370048423496853e-10
-8.428493617598668e-10
-8.38119772233306e-10
-8.456492612559874e-10
-8.375189438554128e-10
-8.443631870658299e-10
-8.36681501679532e-10
-8.432843008873487e-10
-8.384452486857169e-10
-8.422060749762811e-10
-8.385758983409869e-10
-8.430489178296476e-10
-8.400147821503802e-10
-8.415482459448961e-10
-8.390244713514538e-10
-8.389168803667266e-10
-8.369293644570942e-10
-8.377257199775763e-10
-8.372019996162833e-10
-8.382563775734574e-10
-8.349235667527077e-10
-8.404099622917169e-10
-8.363476111440733e-10
-8.406873155879466e-10
-8.352086324069391e-10
-8.405050511211289e-10
-8.341452847353428e-10
-8.401443487244204e-10
-8.354455398976679e-10
-8.411329339235571e-10
-8.353526170034221e-10
-8.425219026462727e-10
-8.352600942954333e-10
-8.425338965052384e-10
-8.354239067825376e-10
-8.427961452198691e-10
-8.347277376154053e-10
-8.428898481992552e-10
-8.349003523691255e-10
-8.423603754117424e-10
-8.36186329408266e-10
-8.430873695546738e-10
-8.345101002760437e-10
-8.426279119506222e-10
-8.341334176249766e-10
-8.422976802956902e-10
-8.333486336540614e-10
-8.446656373105316e-10
-8.335786361468144e-10
-8.44623062426184e-10
-8.330767063922732e-10
-8.427425390514271e-10
-8.341551225275204e-10
-8.417822315803096e-10
-8.320729633319603e-10
-8.442808119478551e-10
-8.330627649696671e-10
-8.447467509092316e-10
-8.329755728970215e-10
-8.484505654155417e-10
-8.374364991234393e-10
-8.477183424050803e-10
-8.349987460531347e-10
-8.493420175715003e-10
-8.338956560567983e-10
-8.504004464971085e-10
-8.350190716053745e-10
-8.488596076612896e-10
-8.35216823923075e-10
-8.484737640555665e-10
-8.380915690308e-10
-8.481694518336483e-10
-8.40942229742253e-10
-8.476912522998704e-10
-8.409983425879685e-10
-8.483434410657343e-10
-8.449515111907746e-10
-8.461674646306657e-10
-8.398808592710318e-10
-8.445511835156609e-10
-8.412789420833605e-10
-8.486229459452899e-10
-8.384441691421178e-10
-8.521266781379669e-10
-8.416115649915867e-10
-8.541121566875914e-10
-8.4815250267712e-10
-8.518430310954414e-10
-8.41574564664606e-10
-8.529064371266976e-10
-8.440176031699499e-10
-8.544625589919512e-10
-8.465198883477069e-10
-8.468347731542961e-10
-8.411317363875084e-10
-8.453535773412595e-10
-8.384664981009478e-10
-8.441412721735991e-10
-8.355191368161873e-10
-8.380443805901476e-10
-8.330886879372812e-10
-8.357548140806685e-10
-8.35189405722796e-10
-8.365084848671174e-10
-8.373824297548991e-10
-8.39506623609764e-10
-8.37908058421078e-10
-8.406665469826413e-10
-8.385325286720369e-10
-8.390523086131251e-10
-8.358235579510369e-10
-8.368176611113865e-10
-8.325727572671994e-10
-8.381706297129901e-10
-8.360151738765029e-10
-8.420731183472313e-10
-8.403010138277432e-10
-8.387417649674106e-10
-8.347442348203259e-10
-8.315172946673437e-10
-8.288570663271783e-10
-8.273844623780492e-10
-8.220970134464226e-10
-8.205783570279106e-10
-8.179535207367878e-10
-8.305880571542273e-10
-8.174831769305776e-10
-8.337465034084183e-10
-8.231974408011583e-10
-8.244420400573328e-10
-8.250053035919323e-10
-8.304222259131349e-10
-8.402303478318943e-10
-8.241173698367802e-10
-8.416910970593898e-10
-8.297705870349825e-10
-8.432357501147291e-10
-8.340510811958509e-10
-8.341894704786488e-10
-8.260120529460883e-10
-8.23160743445762e-10
-8.266215743313693e-10
-8.193376215987169e-10
-8.195454796730811e-10
-8.252987322413509e-10
-8.293991748603099e-10
-8.25626185962865e-10
-8.173956996311096e-10
-8.304333886421776e-10
-8.312042916358761e-10
-8.225844285840804e-10
-8.325307276525234e-10
-8.268844640759521e-10
-8.224168406423231e-10
-8.341106605669581e-10
-8.393395894027588e-10
-8.426410967097423e-10
-8.500026867549466e-10
-8.396145164724941e-10
-8.39620329222128e-10
-8.437921500810057e-10
-8.328873034657991e-10
-8.336719154716948e-10
-8.506957253664497e-10
-8.423461920841665e-10
-8.504831305073089e-10
-8.532687603234858e-10
-8.564075276483517e-10
-8.551913514434259e-10
-8.632655345082454e-10
-8.726961935382949e-10
-8.520003512412071e-10
-8.584740037389472e-10
-8.234231595022267e-10
-8.245352781076845e-10
-7.99387258668419e-10
-8.0278069065738e-10
-8.163452487271621e-10
-8.118717477506022e-10
-8.311607806872627e-10
-8.340717746632179e-10
-7.982083984829178e-10
-7.898613785874399e-10
-8.677328259930244e-10
-8.796140691159714e-10
-8.147167164332555e-10
-8.063596625714052e-10
-8.042927956795801e-10
-8.02664043386695e-10
-8.073131230891182e-10
-8.005961775911801e-10
-8.424111299133539e-10
-8.049257265999049e-10
-8.220907969069875e-10
-7.983995619052076e-10
-7.969064274638636e-10
-7.769939949000692e-10
-8.501477414263335e-10
-8.510561910423813e-10
-8.405723207469347e-10
-8.456446935383597e-10
-8.355383622212063e-10
-8.839615134572045e-10
-8.785197108880978e-10
-8.736460784042609e-10
-7.649745568060997e-10
-7.546756339595958e-10
-8.190468795362891e-10
-8.016218887080604e-10
-8.600527944099319e-10
-8.457540236055883e-10
-8.001948014215557e-10
-8.035019036448404e-10
-8.001262051079322e-10
-8.021287117444122e-10
-7.700798492717837e-10
-7.319979007442753e-10
-6.471505630490501e-10
-6.730933177328122e-10
-6.412173352229393e-10
-6.203504902527419e-10
-5.661046997867082e-10
-5.517308262142617e-10
-6.264714271078914e-10
-6.338499715633448e-10
-5.851889563143554e-10
-5.908979253938524e-10
-4.816336224059623e-10
-4.816013619939008e-10
-3.146703938432098e-10
-3.28343372024757e-10
-2.351336470958349e-10
-2.218080846822308e-10
2.909294287306221e-13
-2.056546745363155e-13
)


// ************************************************************************* //
