/*--------------------------------*- C++ -*----------------------------------*\
| =========                 |                                                 |
| \\      /  F ield         | OpenFOAM: The Open Source CFD Toolbox           |
|  \\    /   O peration     | Version:  2412                                  |
|   \\  /    A nd           | Website:  www.openfoam.com                      |
|    \\/     M anipulation  |                                                 |
\*---------------------------------------------------------------------------*/
FoamFile
{
    version     2.0;
    format      ascii;
    arch        "LSB;label=32;scalar=64";
    note        "face data";
    class       scalarField;
    location    "/work/hetmann/EXASIM/WP5/basicSetup_Perdigao_v2/00_caseFiles/minimumExample/postProcessing/surfaces/precursor_profile/450000";
    object      T;
}
// * * * * * * * * * * * * * * * * * * * * * * * * * * * * * * * * * * * * * //


320
(
299.9999999999957
299.9999999999978
299.9999999999956
299.9999999999978
299.9999999999955
299.9999999999973
299.9999999999955
299.9999999999974
299.9999999999953
299.9999999999975
299.9999999999951
299.9999999999976
299.9999999999951
299.9999999999977
299.9999999999952
299.9999999999976
299.9999999999952
299.9999999999977
299.9999999999956
299.9999999999976
299.9999999999957
299.9999999999978
299.9999999999956
299.9999999999975
299.9999999999956
299.9999999999974
299.9999999999957
299.9999999999977
299.9999999999958
299.9999999999975
299.999999999996
299.9999999999974
299.999999999996
299.9999999999972
299.9999999999961
299.9999999999972
299.999999999996
299.9999999999968
299.9999999999959
299.9999999999972
299.999999999996
299.9999999999973
299.9999999999961
299.9999999999974
299.9999999999962
299.9999999999976
299.9999999999965
299.9999999999973
299.9999999999966
299.9999999999976
299.9999999999964
299.9999999999977
299.9999999999965
299.9999999999974
299.9999999999965
299.9999999999976
299.9999999999966
299.9999999999977
299.9999999999965
299.9999999999977
299.9999999999967
299.999999999998
299.9999999999965
299.9999999999981
299.9999999999962
299.9999999999975
299.9999999999962
299.9999999999974
299.9999999999962
299.9999999999973
299.9999999999962
299.9999999999973
299.9999999999962
299.9999999999974
299.9999999999964
299.9999999999972
299.9999999999965
299.9999999999969
299.9999999999965
299.9999999999965
299.9999999999964
299.9999999999965
299.999999999997
299.9999999999966
299.9999999999968
299.9999999999966
299.9999999999966
299.9999999999967
299.999999999997
299.9999999999967
299.9999999999969
299.9999999999965
299.9999999999967
299.9999999999968
299.9999999999965
299.9999999999967
299.9999999999967
299.9999999999969
299.9999999999965
299.9999999999968
299.9999999999961
299.9999999999965
299.999999999996
299.9999999999966
299.9999999999961
299.9999999999963
299.9999999999964
299.9999999999965
299.9999999999964
299.9999999999964
299.9999999999963
299.9999999999963
299.9999999999962
299.9999999999964
299.9999999999965
299.9999999999964
299.9999999999966
299.9999999999964
299.9999999999965
299.9999999999964
299.9999999999966
299.9999999999964
299.9999999999966
299.9999999999963
299.9999999999965
299.9999999999965
299.9999999999966
299.9999999999962
299.9999999999966
299.9999999999962
299.9999999999965
299.9999999999961
299.9999999999968
299.9999999999961
299.9999999999967
299.9999999999961
299.9999999999965
299.9999999999962
299.9999999999965
299.9999999999961
299.9999999999966
299.9999999999962
299.9999999999967
299.9999999999961
299.999999999997
299.9999999999966
299.9999999999969
299.9999999999964
299.9999999999969
299.9999999999962
299.9999999999972
299.9999999999964
299.999999999997
299.9999999999963
299.9999999999969
299.9999999999965
299.999999999997
299.9999999999968
299.9999999999969
299.9999999999967
299.999999999997
299.999999999997
299.9999999999969
299.9999999999966
299.9999999999968
299.9999999999966
299.999999999997
299.9999999999965
299.9999999999972
299.9999999999967
299.9999999999974
299.9999999999971
299.9999999999972
299.9999999999967
299.9999999999974
299.9999999999968
299.9999999999974
299.999999999997
299.9999999999969
299.9999999999968
299.9999999999968
299.9999999999966
299.9999999999967
299.9999999999964
299.9999999999965
299.9999999999962
299.9999999999964
299.9999999999964
299.9999999999965
299.9999999999965
299.9999999999966
299.9999999999965
299.9999999999966
299.9999999999966
299.9999999999966
299.9999999999965
299.9999999999965
299.9999999999963
299.9999999999965
299.9999999999964
299.9999999999966
299.9999999999967
299.9999999999965
299.9999999999965
299.9999999999962
299.9999999999961
299.9999999999961
299.999999999996
299.9999999999958
299.9999999999958
299.9999999999962
299.9999999999958
299.9999999999964
299.999999999996
299.999999999996
299.999999999996
299.9999999999962
299.9999999999965
299.999999999996
299.9999999999966
299.9999999999961
299.9999999999966
299.9999999999962
299.9999999999963
299.999999999996
299.999999999996
299.9999999999961
299.999999999996
299.9999999999959
299.999999999996
299.9999999999961
299.999999999996
299.9999999999958
299.9999999999962
299.9999999999961
299.999999999996
299.9999999999961
299.999999999996
299.999999999996
299.9999999999961
299.9999999999964
299.9999999999965
299.9999999999965
299.9999999999965
299.9999999999964
299.9999999999965
299.9999999999961
299.9999999999961
299.9999999999965
299.9999999999964
299.9999999999966
299.9999999999966
299.9999999999967
299.9999999999967
299.9999999999968
299.9999999999969
299.9999999999966
299.9999999999967
299.9999999999961
299.999999999996
299.9999999999956
299.9999999999957
299.9999999999959
299.9999999999959
299.9999999999961
299.9999999999962
299.9999999999956
299.9999999999955
299.9999999999968
299.9999999999969
299.9999999999959
299.9999999999958
299.9999999999957
299.9999999999958
299.9999999999957
299.9999999999958
299.9999999999962
299.9999999999957
299.9999999999959
299.9999999999956
299.9999999999956
299.9999999999953
299.9999999999963
299.9999999999964
299.9999999999961
299.9999999999962
299.999999999996
299.9999999999967
299.9999999999966
299.9999999999966
299.9999999999953
299.9999999999952
299.999999999996
299.9999999999957
299.9999999999964
299.9999999999962
299.9999999999956
299.9999999999957
299.9999999999958
299.9999999999957
299.9999999999953
299.9999999999951
299.999999999994
299.9999999999943
299.999999999994
299.9999999999937
299.9999999999932
299.9999999999932
299.9999999999938
299.999999999994
299.9999999999935
299.9999999999935
299.9999999999925
299.9999999999924
299.999999999991
299.9999999999911
299.9999999999903
299.9999999999902
299.9999999999883
299.9999999999882
)


// ************************************************************************* //
