/*--------------------------------*- C++ -*----------------------------------*\
| =========                 |                                                 |
| \\      /  F ield         | OpenFOAM: The Open Source CFD Toolbox           |
|  \\    /   O peration     | Version:  2412                                  |
|   \\  /    A nd           | Website:  www.openfoam.com                      |
|    \\/     M anipulation  |                                                 |
\*---------------------------------------------------------------------------*/
FoamFile
{
    version     2.0;
    format      ascii;
    arch        "LSB;label=32;scalar=64";
    note        "face data";
    class       symmTensorField;
    location    "/work/hetmann/EXASIM/WP5/basicSetup_Perdigao_v2/00_caseFiles/minimumExample/postProcessing/surfaces/precursor_profile/450000";
    object      turbulenceProperties:R;
}
// * * * * * * * * * * * * * * * * * * * * * * * * * * * * * * * * * * * * * //


320
(
(0.5946397906803778 0 -0.2550116897032679 0.5946397906803778 -0.06638795066668453 0.5946397906803778)
(0.5946397844565894 -2.885854929889808e-20 -0.2550116902642158 0.5946397844565894 -0.06638795085842764 0.5946397844565894)
(0.6015376184748737 -5.101804573251265e-20 -0.2691104193751039 0.6015376184748737 -0.06883375123715157 0.6015376184748737)
(0.6015376121326838 0 -0.2691104199715724 0.6015376121326838 -0.06883375144100159 0.6015376121326838)
(0.5953644462849016 0 -0.2609890932034146 0.5953644462849016 -0.06562175699682876 0.5953644462849016)
(0.5953644398953614 0 -0.2609890937850555 0.5953644398953614 -0.06562175719594932 0.5953644398953614)
(0.5898305880840087 -6.973571629325667e-19 -0.2578771351299065 0.5898305880840087 -0.06376408761542564 0.5898305880840087)
(0.5898305815929656 1.394714327727263e-19 -0.2578771357086371 0.5898305815929656 -0.0637640878140735 0.5898305815929656)
(0.5852856198924423 0 -0.2560510928686875 0.5852856198924423 -0.06226660805051404 0.5852856198924423)
(0.5852856132473336 0 -0.256051093448268 0.5852856132473336 -0.06226660825011439 0.5852856132473336)
(0.58142463515631 -1.322675609001765e-19 -0.2547477538677848 0.58142463515631 -0.06091948438299662 0.58142463515631)
(0.5814246283120903 2.625066588324107e-30 -0.2547477544503768 0.5814246283120903 -0.06091948458442867 0.5814246283120903)
(0.5780090541275965 0 -0.2536949063160865 0.5780090541275965 -0.05964557437457089 0.5780090541275965)
(0.5780090470463128 6.03016316340516e-19 -0.2536949069029903 0.5780090470463128 -0.05964557457859064 0.5780090470463128)
(0.5748857902691171 1.347484635290007e-18 -0.2527720099049807 0.5748857902691171 -0.05840944831198409 0.5748857902691171)
(0.5748857829193834 5.053067390973154e-19 -0.2527720104971659 0.5748857829193834 -0.05840944851921829 0.5748857829193834)
(0.5719575530127603 -6.856158321242223e-18 -0.2519183962427989 0.5719575530127603 -0.05719245922278368 0.5719575530127603)
(0.5719575453695052 6.670856756432681e-18 -0.2519183968412448 0.5719575453695052 -0.05719245943389986 0.5719575453695052)
(0.5691609651609481 -6.443123529318479e-18 -0.25110063191196 0.5691609651609481 -0.0559837693597664 0.5691609651609481)
(0.5691609572053062 6.443123540892948e-18 -0.2511006325176395 0.5691609572053062 -0.05598376957547135 0.5691609572053062)
(0.5664533989265608 0 -0.2502989427254215 0.5664533989265608 -0.05477656603894319 0.5664533989265608)
(0.566453390645864 0 -0.2502989433393264 0.566453390645864 -0.05477656625994466 0.566453390645864)
(0.5638052365998514 0 -0.2495009258615258 0.5638052365998514 -0.05356628092211712 0.5638052365998514)
(0.5638052279876831 0 -0.2495009264846003 0.5638052279876831 -0.05356628114927447 0.5638052279876831)
(0.5611952487991376 4.891355628279694e-18 -0.2486983925832378 0.5611952487991376 -0.05234967931861896 0.5611952487991376)
(0.5611952398554219 -6.114194547524685e-18 -0.2486983932165465 0.5611952398554219 -0.05234967955282199 0.5611952398554219)
(0.5586077621033583 2.573441782396336e-18 -0.2478856781850858 0.5586077621033583 -0.05112436238797868 0.5586077621033583)
(0.5586077528345198 -2.573441787723446e-18 -0.2478856788296827 0.5586077528345198 -0.05112436263010487 0.5586077528345198)
(0.556030874301126 0 -0.2470586886745521 0.556030874301126 -0.04988847969597111 0.556030874301126)
(0.5560308647202576 0 -0.2470586893314881 0.5560308647202576 -0.0498884799471009 0.5560308647202576)
(0.5534552990237773 -6.731464622432253e-18 -0.2462143388913157 0.5534552990237773 -0.048640555407133 0.5534552990237773)
(0.5534552891508557 6.731464639133001e-18 -0.246214339562019 0.5534552891508557 -0.04864055566850968 0.5534552891508557)
(0.5508735987379598 -4.071842975878546e-18 -0.2453502086973496 0.5508735987379598 -0.04737937899496638 0.5508735987379598)
(0.5508735886001462 4.653534842030386e-18 -0.2453502093838812 0.5508735886001462 -0.04737937926768629 0.5508735886001462)
(0.5482796636305829 -1.682372149087436e-17 -0.2444643256774921 0.5482796636305829 -0.04610393419091602 0.5482796636305829)
(0.5482796532625425 1.862626313002432e-17 -0.244464326380927 0.5482796532625425 -0.04610393447636453 0.5482796532625425)
(0.5456683499941424 -1.175027940396244e-17 -0.2435550238497479 0.5456683499941424 -0.04481335146820352 0.5456683499941424)
(0.5456683394383975 4.947486078819924e-18 -0.2435550245708372 0.5456683394383975 -0.04481335176806583 0.5456683394383975)
(0.543035224425412 -2.537893469732311e-18 -0.2426208494687961 0.543035224425412 -0.04350687550638847 0.543035224425412)
(0.5430352137327492 2.537893476777228e-18 -0.2426208502107067 0.5430352137327492 -0.04350687582220816 0.5430352137327492)
(0.5403763797006649 0 -0.2416604968143686 0.5403763797006649 -0.04218384248379232 0.5403763797006649)
(0.5403763689305325 0 -0.2416604975791429 0.5403763689305325 -0.04218384281723903 0.5403763689305325)
(0.5376883001558772 0 -0.2406727635307029 0.5376883001558772 -0.04084366400083349 0.5376883001558772)
(0.5376882893767897 0 -0.2406727643201446 0.5376882893767897 -0.0408436643539651 0.5376882893767897)
(0.5349677618880329 6.734642102137128e-19 -0.2396565190002226 0.5349677618880329 -0.0394858155941485 0.5349677618880329)
(0.5349677511780044 0 -0.2396565198164961 0.5349677511780044 -0.03948581596904534 0.5349677511780044)
(0.5322117578771073 -5.467930615262264e-18 -0.2386106815804842 0.5322117578771073 -0.03810982850495939 0.5322117578771073)
(0.5322117473240466 -2.733965313267482e-18 -0.2386106824259011 0.5322117473240466 -0.03810982890401671 0.5322117473240466)
(0.5294174412438628 -1.384148512371285e-18 -0.2375342019792636 0.5294174412438628 -0.03671528381290422 0.5294174412438628)
(0.5294174309459621 1.086046917893529e-27 -0.2375342028575453 0.5294174309459621 -0.03671528423844165 0.5294174309459621)
(0.5265820819242446 0 -0.2364260509468336 0.5265820819242446 -0.0353018083255326 0.5265820819242446)
(0.5265820719903257 0 -0.2364260518608192 0.5265820719903257 -0.03530180877996812 0.5265820719903257)
(0.5237030334338353 0 -0.2352852100585479 0.5237030334338353 -0.03386907180291658 0.5237030334338353)
(0.5237030239835598 -6.39103963122863e-28 -0.2352852110112611 0.5237030239835598 -0.0338690722894649 0.5237030239835598)
(0.5207777073489517 -7.094491803924861e-18 -0.2341106647441314 0.5207777073489517 -0.03241678522061053 0.5207777073489517)
(0.5207776985129795 1.135118693282476e-17 -0.2341106657380954 0.5207776985129795 -0.03241678574210155 0.5207776985129795)
(0.5178035537929098 -1.425118158440471e-18 -0.2329013989689726 0.5178035537929098 -0.03094469985702897 0.5178035537929098)
(0.5178035457129508 0 -0.2329014000080551 0.5178035457129508 -0.03094470041642688 0.5178035457129508)
(0.5147780466813976 0 -0.2316563911567375 0.5147780466813976 -0.0294526070527543 0.5147780466813976)
(0.5147780395100621 0 -0.2316563922453179 0.5147780395100621 -0.02945260765348414 0.5147780395100621)
(0.5116986728119846 0 -0.2303746110512755 0.5116986728119846 -0.02794033852994247 0.5116986728119846)
(0.5116986667124913 -8.497476396688588e-28 -0.2303746121928383 0.5116986667124913 -0.02794033917566765 0.5116986667124913)
(0.5085629241206825 0 -0.2290550173089355 0.5085629241206825 -0.02640776718933472 0.5085629241206825)
(0.5085629192663643 -7.143746785313973e-18 -0.229055018507935 0.5085629192663643 -0.02640776788378752 0.5085629192663643)
(0.5053682926007474 0 -0.2276965556688634 0.5053682926007474 -0.02485480832202514 0.5053682926007474)
(0.5053682891742655 -1.425236383838913e-18 -0.2276965569287927 0.5053682891742655 -0.02485480906864457 0.5053682891742655)
(0.5021122675043934 0 -0.226298157582437 0.5021122675043934 -0.02328142119052126 0.5021122675043934)
(0.5021122656967242 0 -0.2262981589081721 0.5021122656967242 -0.023281421993386 0.5021122656967242)
(0.4987923345394165 -1.129350833038258e-17 -0.2248587392284318 0.4987923345394165 -0.02168761094769726 0.4987923345394165)
(0.4987923345485701 0 -0.2248587406243984 0.4987923345485701 -0.02168761181100205 0.4987923345485701)
(0.4954059768394296 -1.401855805927086e-18 -0.2233772008571425 0.4954059768394296 -0.02007343086514035 0.4954059768394296)
(0.4954059788688291 0 -0.223377202327734 0.4954059788688291 -0.02007343179266476 0.4954059788688291)
(0.4919506775343112 5.56049767211755e-18 -0.2218524264185071 0.4919506775343112 -0.01843898485075337 0.4919506775343112)
(0.4919506817908282 0 -0.2218524279683645 0.4919506817908282 -0.01843898584655398 0.4919506817908282)
(0.4884239237811674 -4.129810359117046e-18 -0.2202832834481819 0.4884239237811674 -0.01678443024480518 0.4884239237811674)
(0.4884239304727678 -1.376603452176984e-18 -0.2202832850814119 0.4884239304727678 -0.01678443131299473 0.4884239304727678)
(0.4848232121390183 1.089123417895614e-17 -0.2186686231991498 0.4848232121390183 -0.0151099808806768 0.4848232121390183)
(0.4848232214720901 1.070531164038358e-26 -0.2186686249212786 0.4848232214720901 -0.01510998202511766 0.4848232214720901)
(0.48114605518499 2.151423942254248e-17 -0.217007281009869 0.48114605518499 -0.01341591040115 0.48114605518499)
(0.4811460673613057 -5.378559879673796e-18 -0.2170072828236975 0.4811460673613057 -0.01341591162553212 0.4811460673613057)
(0.4773899892774118 -1.326424749846375e-18 -0.2152980768959386 0.4773899892774118 -0.0117025558255287 0.4773899892774119)
(0.477390004490715 5.305699032261005e-18 -0.2152980788060361 0.477390004490715 -0.01170255713314187 0.477390004490715)
(0.4735525833737707 0 -0.2135398163873473 0.4735525833737707 -0.009970321360784696 0.4735525833737707)
(0.4735526018059747 1.306873409346217e-18 -0.2135398183975523 0.4735526018059747 -0.009970322754601692 0.4735526018059747)
(0.4696314488095848 1.286100607076954e-18 -0.2117312916050185 0.4696314488095848 -0.00821968245068954 0.4696314488095848)
(0.4696314706266855 1.1574905502037e-17 -0.2117312937185557 0.4696314706266855 -0.008219683933555768 0.4696314706266855)
(0.4656242499396915 -1.390642409838253e-17 -0.2098712825924483 0.4656242499396915 -0.006451190060111172 0.4656242499396915)
(0.4656242752873812 1.896330573004144e-17 -0.2098712848118697 0.4656242752873812 -0.006451191633920314 0.4656242752873812)
(0.4615287155360014 3.439982629390756e-27 -0.2079585589228386 0.4615287155360014 -0.004665475186307447 0.4615287155360014)
(0.4615287445349449 3.459936419172575e-27 -0.207958561249719 0.4615287445349449 -0.004665476852113133 0.4615287445349449)
(0.4573426508265418 -7.305520345238317e-18 -0.2059918815906898 0.4573426508265418 -0.002863253592783329 0.4573426508265418)
(0.4573426835675622 -2.435173454408426e-18 -0.2059918840273146 0.4573426835675622 -0.002863255350942348 0.4573426835675622)
(0.4530639500515406 0 -0.2039700091211576 0.4530639500515406 -0.0002621637560143799 0.4530639500515406)
(0.4530639865907736 -9.106768433818125e-18 -0.2039700116667744 0.4530639865907736 -0.0002621675867840507 0.4530639865907736)
(0.4486907082289179 6.133045031444693e-18 -0.2018916842434063 0.4486907082289179 5.264904136474929e-08 0.4486907082289179)
(0.4486907485823143 -2.885134878128128e-16 -0.2018916868976191 0.4486907485823144 2.024571579714065e-08 0.4486907485823144)
(0.4442210062871212 3.903775256355374e-27 -0.199755659700269 0.4442210062871212 0.002633917098724219 0.4442210062871212)
(0.4442210504275461 -3.925705435446123e-27 -0.199755662461741 0.4442210504275461 0.002633915072666509 0.4442210504275461)
(0.4396530235769611 1.004253514975882e-17 -0.1975606912428227 0.4396530235769611 0.004493135148797998 0.4396530235769611)
(0.4396530714271946 -1.115837243431809e-17 -0.1975606941077434 0.4396530714271946 0.00449313304099393 0.4396530714271946)
(0.4349851451134261 -8.183400748775773e-27 -0.1953055351966267 0.4349851451134261 0.006363829369193956 0.4349851451134261)
(0.4349851965428818 4.114091043328338e-27 -0.195305538160403 0.4349851965428818 0.006363827186383392 0.4349851965428818)
(0.4302159109880184 -1.699715478529287e-17 -0.1929889602261285 0.4302159109880184 0.008244664618351522 0.4302159109880184)
(0.4302159658089966 1.699715488049602e-17 -0.1929889632832149 0.4302159658089966 0.008244662369078018 0.4302159658089966)
(0.4253440290764099 1.656355803697572e-17 -0.1906097499485575 0.4253440290764099 0.01013418243049698 0.4253440290764099)
(0.4253440870409906 -1.656355813103061e-17 -0.1906097530907707 0.4253440870409906 0.01013418012514322 0.4253440870409906)
(0.4203683872226309 -8.064023466831435e-18 -0.1881667081316807 0.420368387222631 0.01203079491255362 0.420368387222631)
(0.4203684480204586 1.612804700112516e-17 -0.1881667113499398 0.4203684480204586 0.01203079256407714 0.4203684480204586)
(0.415288064755083 -1.569182250843939e-17 -0.1856586644620324 0.415288064755083 0.01393277856026219 0.415288064755083)
(0.4152881280122265 1.76533004317006e-17 -0.1856586677451718 0.4152881280122265 0.01393277618378284 0.4152881280122265)
(0.4101023432019772 1.035487154622582e-26 -0.1830844809201125 0.4101023432019772 0.01583826802285124 0.4101023432019772)
(0.4101024084809308 6.012766671590064e-27 -0.1830844842553223 0.4101024084809308 0.01583826563582488 0.4101024084809308)
(0.4048107160903873 -1.482162344213465e-17 -0.1804430588082288 0.4048107160903873 0.01774524985300025 0.4048107160903873)
(0.404810782891542 1.482162352739207e-17 -0.1804430621811581 0.404810782891542 0.01774524747570626 0.404810782891542)
(0.3994128977337611 -8.993521811258465e-19 -0.1777333464710472 0.3994128977337611 0.01965155628423627 0.3994128977337611)
(0.3994129654984268 6.29546524008827e-18 -0.1777333498658271 0.3994129654984268 0.01965155393931548 0.3994129654984268)
(0.3939088309371432 -6.980452824915398e-18 -0.1749543477577439 0.3939088309371433 0.02155485908050416 0.3939088309371433)
(0.3939088990523157 1.22157925648678e-17 -0.1749543511576962 0.3939088990523157 0.02155485679293294 0.3939088990523157)
(0.3882986935768789 -1.522825149148522e-17 -0.1721051312685742 0.3882986935768788 0.02345266351168289 0.3882986935768789)
(0.3882987613821036 1.353622367150357e-17 -0.1721051346552346 0.3882987613821036 0.02345266130891742 0.3882987613821036)
(0.3825829040414787 6.558148239739089e-18 -0.1691848404290017 0.3825829040414787 0.02534230251422817 0.3825829040414787)
(0.3825829708377697 -6.558148239202901e-18 -0.1691848437841212 0.3825829708377697 0.02534230042563685 0.3825829708377697)
(0.3767621255512863 -7.938597575948122e-18 -0.1661927044488444 0.3767621255512863 0.02722093110256927 0.3767621255512863)
(0.3767621906123148 4.76315861129348e-18 -0.1661927077536016 0.3767621906123148 0.02722092915934846 0.3767621906123148)
(0.3708372694061171 1.843974103894135e-17 -0.1631280502008084 0.3708372694061171 0.02908552110670296 0.3708372694061172)
(0.3708373319918332 -1.229316075646376e-17 -0.1631280534363937 0.3708373319918332 0.02908551934144684 0.3708373319918332)
(0.364809497240687 1.783649705361186e-17 -0.1599903150709813 0.364809497240687 0.0309328563179707 0.364809497240687)
(0.3648095566133506 -5.945499075590197e-18 -0.1599903182200008 0.3648095566133506 0.03093285476395104 0.3648095566133506)
(0.358680222395965 1.149568964343635e-17 -0.1567790608271221 0.358680222395965 0.03275952813541191 0.358680222395965)
(0.3586802778386866 -1.005872850824964e-17 -0.1567790638743801 0.3586802778386866 0.03275952682597696 0.3586802778386866)
(0.3524511105396068 -2.221518873210013e-17 -0.1534939885443362 0.3524511105396068 0.03456193181549719 0.3524511105396069)
(0.3524511613774647 2.221518887749987e-17 -0.1534939914773626 0.3524511613774647 0.03456193078308958 0.3524511613774647)
(0.3461240796895825 1.072701247827089e-17 -0.1501349546297241 0.3461240796895825 0.03633626343779094 0.3461240796895825)
(0.3461241253129729 -2.145402521972749e-17 -0.1501349574381012 0.3461241253129729 0.03633626271329761 0.3461241253129729)
(0.3397012998099488 1.811983284723852e-17 -0.1467019879828729 0.3397012998099488 0.03807851771278964 0.3397012998099489)
(0.3397013397001242 9.059916473021134e-18 -0.146701990663506 0.3397013397001242 0.03807851732430824 0.3397013397001242)
(0.333185192157051 -1.997864603368354e-17 -0.1431953083300287 0.333185192157051 0.0397844867691139 0.333185192157051)
(0.3331852259135483 1.420488581633459e-26 -0.1431953108840595 0.3331852259135483 0.0397844867406718 0.3331852259135483)
(0.3265784285570693 -9.63256086565675e-18 -0.1396153457436987 0.3265784285570693 0.04144976007234005 0.3265784285570694)
(0.3265784559262876 0 -0.1396153481783654 0.3265784559262876 0.04144976042271004 0.3265784559262875)
(0.3198839307907335 -2.785203445242821e-17 -0.1359627613802468 0.3198839307907336 0.04306972564218363 0.3198839307907336)
(0.3198839516951343 1.856802312779134e-17 -0.1359627637132083 0.3198839516951344 0.04306972638351678 0.3198839516951344)
(0.3131048702499304 0 -0.1322384694399955 0.3131048702499304 0.04463957275032089 0.3131048702499304)
(0.313104884817017 0 -0.1322384716970763 0.313104884817017 0.04463957388685853 0.313104884817017)
(0.3062446680130421 -1.722359372177698e-17 -0.1284436603404012 0.3062446680130421 0.04615429629861241 0.3062446680130421)
(0.3062446766027212 -8.611796947189606e-18 -0.1284436625576841 0.3062446766027212 0.04615429782534371 0.3062446766027212)
(0.2993069954617432 0 -0.124579825095404 0.2993069954617432 0.04760870309388686 0.2993069954617433)
(0.29930699869046 8.288173124035811e-18 -0.1245798273199479 0.29930699869046 0.04760870499541096 0.29930699869046)
(0.2922957755329595 7.972852140776434e-18 -0.1206487808554853 0.2922957755329596 0.04899742025550591 0.2922957755329596)
(0.2922957742925861 -7.972852224624322e-18 -0.12064878314615 0.2922957742925861 0.0489974225050846 0.2922957742925861)
(0.2852151846666582 1.533157884993974e-17 -0.1166526975634823 0.2852151846666582 0.05031490601019151 0.2852151846666582)
(0.2852151801357301 1.386473500290471e-26 -0.1166526999904507 0.2852151801357301 0.05031490856920496 0.2852151801357301)
(0.2780696554735773 -2.954388860641664e-27 -0.1125941256441975 0.2780696554735773 0.05155546314859159 0.2780696554735773)
(0.2780696491176757 1.473383971201232e-17 -0.1125941282887336 0.2780696491176757 0.05155546596650546 0.2780696491176757)
(0.2708638801100418 6.633900513722775e-18 -0.1084760246169866 0.2708638801100419 0.05271325543822436 0.2708638801100419)
(0.2708638736675458 4.422600400491527e-19 -0.1084760275685969 0.2708638736675458 0.05271325845318436 0.2708638736675458)
(0.2636028143078162 5.626388936522329e-26 -0.1043017924957272 0.2636028143078162 0.05378232730732632 0.2636028143078162)
(0.2636028097569872 1.358682896739994e-17 -0.1043017958517909 0.2636028097569872 0.05378233044766008 0.2636028097569871)
(0.2562916819695721 -1.955571425575079e-17 -0.10007529579897 0.2562916819695721 0.05475662713336256 0.2562916819695721)
(0.2562916814722951 1.579164640119161e-26 -0.1000752996584021 0.2562916814722951 0.0547566303202186 0.2562916814722951)
(0.2489359802046898 -6.251511596609945e-18 -0.09580089994116234 0.2489359802046898 0.05563003448882248 0.2489359802046898)
(0.2489359860224626 6.64223118418673e-18 -0.09580090439716207 0.2489359860224626 0.05563003763999196 0.2489359860224626)
(0.2415414846462475 -1.160970712677034e-17 -0.09148349973389167 0.2415414846462474 0.05639639171260823 0.2415414846462475)
(0.2415414990246975 1.198421403456894e-17 -0.09148350486745954 0.2415414990246975 0.05639639474798007 0.2415414990246974)
(0.2341142548604262 2.296089085962988e-17 -0.08712854966713157 0.2341142548604263 0.05704954018986279 0.2341142548604263)
(0.234114279880645 -2.331965521515777e-17 -0.08712855553292015 0.234114279880645 0.05704954303845564 0.234114279880645)
(0.2266606396333318 -2.163939644010274e-17 -0.08274209356317493 0.2266606396333318 0.05758336173299408 0.2266606396333318)
(0.2266606770326006 3.297431920087482e-17 -0.08274210017483781 0.2266606770326006 0.05758336434144384 0.2266606770326006)
(0.219187281898607 -1.750255951768603e-25 -0.078330793133497 0.219187281898607 0.05799182546033349 0.219187281898607)
(0.2191873328700296 2.107052593115255e-25 -0.07833080044312572 0.2191873328700296 0.05799182780262563 0.2191873328700296)
(0.2117011230528655 0 -0.07390195487280068 0.2117011230528655 0.05826904056829216 0.2117011230528654)
(0.2117011880442785 0 -0.07390196274726286 0.2117011880442785 0.05826904265560355 0.2117011880442785)
(0.2042094063933396 -2.881160034089376e-17 -0.06946355458716207 0.2042094063933396 0.05840931542872546 0.2042094063933396)
(0.2042094849405614 2.883037098244309e-17 -0.06946356276558663 0.2042094849405613 0.05840931733659649 0.2042094849405615)
(0.1967196796564055 9.177281315030115e-18 -0.06502425863817549 0.1967196796564055 0.05840722327733455 0.1967196796564055)
(0.196719770387351 9.177281351183908e-18 -0.06502426689086932 0.196719770387351 0.05840722514376506 0.196719770387351)
(0.1892398051897674 -2.62732553236807e-17 -0.06059344179333504 0.1892398051897674 0.05825767489779662 0.1892398051897674)
(0.1892399062850502 1.751550425698215e-17 -0.06059345004086227 0.1892399062850502 0.05825767691971546 0.1892399062850502)
(0.1817779543299775 0 -0.05618119986253125 0.1817779543299775 0.05795599856107859 0.1817779543299775)
(0.1817780638359284 -8.61222406432816e-18 -0.0561812080573805 0.1817780638359284 0.05795600099247397 0.1817780638359284)
(0.1743426013415236 -1.591496510192598e-17 -0.05179835586633418 0.1743426013415236 0.05749802735793245 0.1743426013415236)
(0.1743427172746125 1.591496572363359e-17 -0.05179836395154796 0.1743427172746125 0.05749803048093691 0.1743427172746125)
(0.1669425184415409 7.339422779459446e-18 -0.0474564591391058 0.1669425184415409 0.05688019413383909 0.1669425184415408)
(0.1669426388309134 -7.576178781163621e-18 -0.04745646705179681 0.1669426388309134 0.0568801982442696 0.1669426388309134)
(0.1595867677328103 2.302692994208702e-26 -0.0431677753896482 0.1595867677328103 0.05609963400485972 0.1595867677328103)
(0.1595868906312445 0 -0.04316778305799555 0.1595868906312445 0.0560996393965361 0.1595868906312445)
(0.1522846897034398 2.402204831470218e-25 -0.03894526625242486 0.1522846897034397 0.05515429423692413 0.1522846897034397)
(0.1522848131634397 -1.320461904779209e-25 -0.03894527360075067 0.1522848131634397 0.05515430118136471 0.1522848131634398)
(0.1450458877629718 1.300862057101804e-17 -0.03480255651479036 0.1450458877629718 0.05404305111506962 0.1450458877629718)
(0.1450460097670608 -6.504310584242262e-18 -0.03480256346969499 0.1450460097670608 0.05404305984243676 0.1450460097670608)
(0.1378802081137127 1.851048436527193e-17 -0.03075388703807667 0.1378802081137127 0.05276583317023788 0.1378802081137126)
(0.1378803264621314 -1.851048544307729e-17 -0.03075389353324979 0.1378803264621314 0.05276584385335306 0.1378803264621315)
(0.1307977139859843 5.84716212022158e-18 -0.02681405122619685 0.1307977139859843 0.05132374980565187 0.1307977139859843)
(0.1307978261576628 -5.847162334271055e-18 -0.02681405720631328 0.1307978261576628 0.05132376254836085 0.1307978261576628)
(0.1238086527860253 1.660520830102794e-17 -0.02299831274851918 0.1238086527860253 0.04971922395835955 0.1238086527860253)
(0.1238087557973696 -1.522144288291179e-17 -0.02299831817047981 0.1238087557973696 0.04971923878913327 0.1238087557973697)
(0.1169234138632513 -5.233647990655087e-18 -0.0193223020989014 0.1169234138632513 0.04795612690487044 0.1169234138632513)
(0.1169235041530751 5.233649000236569e-18 -0.01932230693192339 0.1169235041530751 0.04795614377594018 0.1169235041530752)
(0.1101524731433384 6.178337436187034e-19 -0.0158018895045068 0.1101524731433384 0.04603991260252841 0.1101524731433384)
(0.1101525465100342 1.05031735629259e-17 -0.01580189372839467 0.1101525465100342 0.04603993139430219 0.1101525465100342)
(0.1035063184085861 0 -0.01245303173918749 0.1035063184085861 0.04397774791226493 0.103506318408586)
(0.1035063700166605 0 -0.01245303534101867 0.1035063700166605 0.04397776844222698 0.1035063700166606)
(0.09699534503112611 0 -0.00929159067597508 0.09699534503112611 0.04177863338032473 0.09699534503112606)
(0.09699536949245145 0 -0.009291593646987961 0.09699536949245145 0.0417786554152368 0.09699536949245147)
(0.0906297060962602 -1.847011665797974e-25 -0.006333122230670131 0.0906297060962602 0.03945350635065008 0.0906297060962602)
(0.0906296976190616 1.032557784245539e-18 -0.00633312456226247 0.09062969761906162 0.03945352962054567 0.09062969761906164)
(0.08441909379416884 -7.757885340635424e-18 -0.003592636472324174 0.08441909379416884 0.03701531274511487 0.08441909379416887)
(0.08441904638367907 1.551577381860019e-17 -0.003592638152829715 0.08441904638367906 0.03701533695810205 0.08441904638367911)
(0.07837242567486499 2.257000913200319e-17 -1.217230224792121e-07 0.07837242567486501 0.03447989831162035 0.07837242567486497)
(0.07837233336644919 -1.565296119765175e-17 -5.726308291448665e-08 0.07837233336644922 0.03447992316817591 0.07837233336644925)
(0.07251451690910263 -4.15087479262569e-17 0.0001707042834795719 0.07251451690910263 0.03186394585506169 0.07251451690910261)
(0.0725143737319309 4.150878793001728e-17 0.0001707029923694018 0.07251437373193091 0.03186397109095586 0.07251437373193094)
(0.06684873339254171 6.362141651569622e-18 0.003185384324527235 0.06684873339254171 0.02918643652631919 0.06684873339254174)
(0.06684853395557368 -6.362142368395397e-18 0.003185384726392795 0.06684853395557368 0.02918646179202921 0.06684853395557369)
(0.0613769723522334 0 0.004925630943948962 0.06137697235223341 0.02647025890237968 0.06137697235223337)
(0.06137671170159134 0 0.004925632099643574 0.06137671170159134 0.02647028394076589 0.06137671170159135)
(0.05610951988502227 0 0.006392277521541386 0.05610951988502227 0.02373853832342873 0.05610951988502226)
(0.05610919366865104 5.521173432836219e-18 0.006392279466642339 0.05610919366865104 0.02373856289137553 0.05610919366865107)
(0.0510555227976221 1.153488459832165e-17 0.007580738246053827 0.05105552279762211 0.02101689906235507 0.05105552279762217)
(0.05105512729721155 1.281653947801472e-18 0.007580741014437391 0.05105512729721157 0.02101692294397283 0.05105512729721157)
(0.04622309470465566 1.187225918413649e-18 0.008489625802381752 0.04622309470465566 0.01833256896625123 0.04622309470465565)
(0.04622262686128653 0 0.00848962941916798 0.04622262686128652 0.01833259196878086 0.0462226268612865)
(0.04161933232475933 0 0.009121204236993738 0.04161933232475931 0.01571402858043778 0.0416193323247593)
(0.04161878976557379 0 0.009121208707756866 0.04161878976557378 0.0157140505293028 0.0416187897655738)
(0.03725027582621167 -1.010714110039328e-18 0.009481828818153286 0.03725027582621166 0.01319054677165439 0.03725027582621169)
(0.03724965691200998 0 0.009481834113288869 0.03724965691200998 0.01319056750536317 0.03724965691201)
(0.03312083636651419 0 0.009582349421542615 0.03312083636651419 0.01079159136680155 0.03312083636651422)
(0.03312014028261188 0 0.009582355453576859 0.03312014028261188 0.0107916107328571 0.03312014028261188)
(0.02923470802438354 0 0.009438447842028977 0.02923470802438354 0.008546105690165787 0.02923470802438352)
(0.02923393493408971 0 0.009438454430351653 0.02923393493408971 0.008546123543479622 0.02923393493408971)
(0.02559428032903023 0 0.009070871800886761 0.02559428032903023 0.006481646145258146 0.02559428032903022)
(0.02559343159958349 0 0.009070878614713621 0.02559343159958349 0.00648166235252621 0.02559343159958349)
(0.02220057456763955 -3.852138700837696e-26 0.008505518010409704 0.02220057456763955 0.004623383079790308 0.02220057456763957)
(0.02219965307174179 2.115472888502905e-18 0.008505524474890235 0.02219965307174178 0.004623397538329087 0.02219965307174179)
(0.01905324992739519 -2.244492452958202e-25 0.007773299426988289 0.0190532499273952 0.002992979688707355 0.0190532499273952)
(0.01905226049105173 -2.553082255372427e-18 0.007773304583298926 0.01905226049105173 0.0029929923791571 0.01905226049105172)
(0.01615077301326626 0 0.006909703008339024 0.01615077301326626 0.00160739128661825 0.01615077301326625)
(0.01614972363878715 0 0.006909705342242381 0.01614972363878715 0.00160740239261714 0.01614972363878712)
(0.0134908679719647 -6.142539878553663e-20 0.00595504999977553 0.01349086797196471 2.985918719776816e-07 0.01349086797196471)
(0.01348977478692298 2.793706449011486e-35 0.005955047114792131 0.01348977478692298 6.268647769903686e-08 0.01348977478692297)
(0.01107094468985025 -1.253611948489746e-18 0.00495149978059541 0.01107094468985025 -5.942814398195011e-06 0.01107094468985026)
(0.01106983804661124 5.84810865624571e-19 0.00495149311943434 0.01106983804661124 -5.922858011788887e-06 0.01106983804661124)
(0.008887983557773694 0 0.003943220847620741 0.008887983557773694 -0.001007828620818493 0.008887983557773701)
(0.008886895598837943 0 0.00394321174198896 0.008886895598837943 -0.001007815819015973 0.00888689559883794)
(0.006940519952232759 1.093006023908549e-23 0.002974622977721796 0.006940519952232759 -0.001382254556816075 0.006940519952232761)
(0.006939496641257757 0 0.00297461088982867 0.006939496641257755 -0.001382238572104202 0.006939496641257746)
(0.005231803810432721 -6.248692241525495e-19 0.00208679809860683 0.005231803810432722 -0.001539418066438898 0.005231803810432723)