/*--------------------------------*- C++ -*----------------------------------*\
| =========                 |                                                 |
| \\      /  F ield         | OpenFOAM: The Open Source CFD Toolbox           |
|  \\    /   O peration     | Version:  2412                                  |
|   \\  /    A nd           | Website:  www.openfoam.com                      |
|    \\/     M anipulation  |                                                 |
\*---------------------------------------------------------------------------*/
FoamFile
{
    version     2.0;
    format      ascii;
    arch        "LSB;label=32;scalar=64";
    note        "face data";
    class       scalarField;
    location    "/work/hetmann/EXASIM/WP5/basicSetup_Perdigao_v2/00_caseFiles/minimumExample/postProcessing/surfaces/precursor_profile/450000";
    object      turbulenceProperties:L;
}
// * * * * * * * * * * * * * * * * * * * * * * * * * * * * * * * * * * * * * //


320
(
0.6751824349228159
0.6751824348576997
1.219930823934772
1.219930823147008
1.786046029766659
1.786046027416257
2.372529246428438
2.372529241565509
2.975315019382689
2.975315011027762
3.59191731054797
3.591917297752121
4.220760373349481
4.220760355234574
4.860727144592624
4.860727120377557
5.510927057857764
5.510927026874571
6.170575008304279
6.170574970006578
6.838925220127252
6.838925174093248
7.515233404032839
7.515233349964078
8.198734320263455
8.198734257980465
8.888628237077645
8.888628166513339
9.584072849942324
9.584072771133375
10.28417877700526
10.2841786900821
10.98800756076518
10.98800746594119
11.69457154892384
11.69457144648318
12.40283527502412
12.40283516530861
13.1117181000237
13.11171798341868
13.82009795561688
13.82009783253606
14.52681607395675
14.52681594482611
15.23068261055392
15.23068247579517
15.93048307577991
15.93048293579363
16.62498549061706
16.62498534576624
17.31294817728625
17.31294802788084
17.99312808733078
17.99312793361357
18.66428956019674
18.66428940233287
19.32521339551556
19.32521323358666
19.9747061131028
19.97470594710621
20.611609266904
20.61160909676071
21.23480867337808
21.23480849894986
21.84324341160793
21.84324323272511
22.4359144521523
22.43591426865549
23.0118927745624
23.01189258635683
23.57032683969698
23.57032664682278
24.11044929248626
24.11044909520314
24.63158278347004
24.63158258235745
25.13314481301045
25.13314460908137
25.61465152016675
25.61465131499197
26.07572035833605
26.07572015417589
26.51607162134552
26.51607142128545
26.93552880610949
26.93552861419499
27.3340178205795
27.33401764194273
27.71156506787686
27.71156490884763
28.06829445857008
28.068294326764
28.40442342247547
28.40442332684886
28.72025263104194
28.72025258193696
29.01617176449202
29.01617177350294
29.29264896787891
29.29264904788376
29.55021862344048
29.55021878840235
29.7894770620609
29.7894773268077
30.01107479378864
30.01107517372124
30.21570854778859
30.21570905851184
30.40411324665329
30.40411390352974
30.57705403372093
30.57705485135369
30.7353184636143
30.73531945525399
30.87970895598622
30.87971013288146
31.01103560089826
31.01103697158657
31.13010939168987
31.13011096124825
31.23773594811862
31.23773771737881
31.33470977924216
31.33471174399915
31.42180912238879
31.42181127260848
31.49979138184293
31.49979370089762
31.56938917887395
31.56939164283006
31.63130701362841
31.63130959060219
31.68621852932223
31.6862211789503
31.73476436028355
31.73476703333839
31.77755053771548
31.77755317589777
31.81514742061581
31.81514995659391
31.84808911415569
31.84809147190753
31.87687333388704
31.87687542941065
31.90196167138244
31.9019634138871
31.92378021529107
31.9237815089834
31.94272048117062
31.94272122780028
31.95914060376201
31.95914070611164
31.97336674652107
31.97336611311327
31.98569468507722
31.9856932364366
31.9963915237762
31.99638920067117
32.00569750749779
32.00569428169607
32.01382789439626
32.01382378259655
32.02097485911752
32.02096994079088
32.02730940033071
32.02730384017732
32.03298323118516
32.03297730660632
32.03813063686908
32.03812476995646
32.04287029044656
32.04286508204389
32.04730702916513
32.04730328883272
32.05153357391671
32.0515323201497
32.05563076075263
32.05563301683095
32.05966941509348
32.05967621186266
32.06371208936432
32.06372448162541
32.06781416917288
32.06783321758695
32.07202481755814
32.07205157633291
32.07638776345394
32.07642327493186
32.08094191084152
32.08098721060745
32.08572176058367
32.08577789529123
32.09075769056446
32.09082574925344
32.09607630844989
32.09615746666312
32.10170155693482
32.10179713196051
32.10765845977625
32.10776997485763
32.11398442395772
32.11411367989508
32.12076043877268
32.12090959244604
32.12819249487546
32.12836414584265
32.13681675276703
32.13701403971902
32.14800532692701
32.14823202927545
32.15655828698625
32.15681878221669
32.16402443254657
32.16432452996598
32.17313640945109
32.17348283454069
32.18337545217068
32.18377633991554
32.19443456029705
32.19489984070377
32.20611793942273
32.20665979060548
32.21827329301544
32.21890670716736
32.23074286131857
32.23148636395278
32.24332372792406
32.24420029634639
32.25573276497178
32.25677101916201
32.26758020820853
32.26881604357384
32.27837400667526
32.2798531730503
32.28760354500105
32.28938670363236
32.29491546034305
32.29708910184029
32.29993215593854
32.30261839182209
32.30029404091603
32.3035496188463
32.29585278520844
32.29983760443039
32.28794063365523
32.29285262950692
32.27707601393869
32.28312911607075
32.24961958618548
32.25692916941385
32.10030274726212
32.10829564754167
31.44310873792798
31.44877687160573
29.27059878027888
29.27298898748096
26.55059599669328
26.55140374220484
25.75481306152786
25.75461696404037
26.24715693145031
26.24551535464198
26.89366023666918
26.89110571242993
27.35567869991065
27.35274944377075
27.5754680963991
27.57259721913078
27.5608993531655
27.55832683393437
27.31838162514205
27.31628153035015
26.85208193133646
26.85058206382099
26.18405911300724
26.18327429299541
25.39105578712718
25.39103933717024
24.63941588264131
24.64002149324158
24.15241257156126
24.15332615644051
24.04704844587307
24.04794531510021
24.23569538145908
24.23635988139134
24.53967152011641
24.54006297496505
24.81882737920218
24.81903431146721
25.00111949009039
25.00127331790083
25.06210156114523
25.06232224589095
25.0026832608922
25.00305958077388
24.83626234998214
24.83684876981278
24.58163625155643
24.58245560686468
24.25647629789005
24.2574756442083
23.86674442222613
23.86797620024785
23.39446301442868
23.39594368336061
22.78215945519784
22.78383222174248
21.91540502340693
21.91729498606975
20.59844200588545
20.60061714903854
18.51491689273994
18.51751110386044
15.02957168061094
15.03272107800387
11.76941342098554
11.77250440052375
2.699945284344643
2.700308029463614
)


// ************************************************************************* //
