/*--------------------------------*- C++ -*----------------------------------*\
| =========                 |                                                 |
| \\      /  F ield         | OpenFOAM: The Open Source CFD Toolbox           |
|  \\    /   O peration     | Version:  2412                                  |
|   \\  /    A nd           | Website:  www.openfoam.com                      |
|    \\/     M anipulation  |                                                 |
\*---------------------------------------------------------------------------*/
FoamFile
{
    version     2.0;
    format      ascii;
    arch        "LSB;label=32;scalar=64";
    note        "face data";
    class       vectorField;
    location    "/work/hetmann/EXASIM/WP5/basicSetup_Perdigao_v2/00_caseFiles/minimumExample/postProcessing/surfaces/precursor_profile/450000";
    object      U;
}
// * * * * * * * * * * * * * * * * * * * * * * * * * * * * * * * * * * * * * //


320
(
(0.6464922501672887 0.1693440142509418 -8.015082697489272e-18)
(0.6464922508651905 0.1693440145471302 -7.212899456726492e-18)
(1.372726654168077 0.3562961586506652 -2.60700859175995e-18)
(1.3727266556275 0.3562961592780755 7.464450663559857e-18)
(1.842308398543419 0.475179561002958 3.588036634614852e-19)
(1.842308400471955 0.4751795618418598 1.0233270655632e-17)
(2.191974665225441 0.5622609195821435 -2.053791105121518e-18)
(2.191974667484462 0.5622609205766225 4.46779211702057e-18)
(2.471955529740644 0.6308521450536506 -9.853507104855783e-18)
(2.471955532248585 0.6308521461714889 4.234849731720035e-18)
(2.706578787061265 0.687388435970697 -1.22429259531021e-17)
(2.706578789764531 0.6873884371911332 8.24264773800787e-18)
(2.909440323050386 0.7354587278927309 -6.565094904986402e-18)
(2.909440325911158 0.735458729201649 8.510270529169218e-18)
(3.088889570798215 0.7772620600191618 -9.651557086877872e-18)
(3.088889573788032 0.7772620614065173 8.701787781626298e-18)
(3.250414003603237 0.81424001524831 -1.533161828752568e-17)
(3.250414006700169 0.8142400167067951 1.205390573567713e-17)
(3.397810521239243 0.8473870885579564 -1.527375273518844e-17)
(3.397810524425836 0.8473870900823059 1.070278268361693e-17)
(3.533814769823088 0.8774172633249844 -1.509556728011827e-17)
(3.533814773085259 0.8774172649113945 1.371105223750823e-17)
(3.660463376596167 0.9048597977869575 -1.620888969545663e-17)
(3.660463379922407 0.9048597994328402 1.444187738588121e-17)
(3.779314234326198 0.9301174174596929 -1.509263439815281e-17)
(3.77931423770695 0.9301174191634982 1.18456818026432e-17)
(3.891586619177916 0.9535032916000075 -1.569889418287409e-17)
(3.891586622605381 0.9535032933610115 1.435466563360916e-17)
(3.998253718266911 0.9752654232254196 -1.884487185939937e-17)
(3.998253721734557 0.9752654250436323 1.751001010215351e-17)
(4.10010569995386 0.9956032529918388 -1.871607617978757e-17)
(4.100105703456382 0.9956032548680502 1.56042982337129e-17)
(4.197793891145761 1.014679271799694 -1.757830877188389e-17)
(4.197793894679084 1.014679273735389 1.598687444220321e-17)
(4.291862460500887 1.032627333984507 -1.756784320786935e-17)
(4.291862464062357 1.032627335981698 2.054419298789078e-17)
(4.382771615952535 1.049558730284496 -1.924310820371279e-17)
(4.382771619539658 1.049558732346017 1.917190422398692e-17)
(4.470914902300456 1.065566703457693 -1.997510998012359e-17)
(4.470914905911815 1.065566705587048 1.820008593177651e-17)
(4.556632310585382 1.08072985834007 -2.114525051566411e-17)
(4.556632314221334 1.080729860541408 2.113459784309538e-17)
(4.640220358661947 1.095114772188356 -2.297985298473086e-17)
(4.64022036232293 1.095114774466547 1.971493525983079e-17)
(4.721939944559058 1.108778016643947 -2.342507069621676e-17)
(4.721939948247068 1.108778019004748 2.050511330548157e-17)
(4.802022537130102 1.121767740060116 -2.229481531534224e-17)
(4.802022540847384 1.121767742509997 2.295861819096353e-17)
(4.88067510819703 1.134124916639556 -2.24871483003891e-17)
(4.880675111947462 1.134124919186091 2.306553193612045e-17)
(4.958084100013521 1.145884339718855 -2.501124620657367e-17)
(4.958084103802097 1.14588434237027 2.136103474556479e-17)
(5.034418644578542 1.15707541616377 -2.51870724682016e-17)
(5.034418648411313 1.157075418929503 2.247557599653063e-17)
(5.109833196391845 1.167722804368535 -2.556199461211695e-17)
(5.109833200276102 1.167722807259227 2.412142930685712e-17)
(5.184469700617727 1.177846927923531 -2.714757012841131e-17)
(5.184469704561493 1.177846930950826 2.198653078389292e-17)
(5.258459389692035 1.187464389409849 -2.890011876931901e-17)
(5.258459393705538 1.187464392586768 2.271905536390092e-17)
(5.33192428001799 1.196588303163286 -2.877641356466692e-17)
(5.331924284112532 1.196588306504227 2.571685819767654e-17)
(5.404978424407844 1.205228561662147 -2.956792239681263e-17)
(5.404978428596468 1.205228565183145 2.715204566170513e-17)
(5.47772896386118 1.213392047036908 -3.147030304424418e-17)
(5.477728968158731 1.213392050755543 2.760638496562712e-17)
(5.550277013061664 1.221082796801928 -3.140815326739488e-17)
(5.550277017484238 1.221082800737386 2.744578522943482e-17)
(5.622718406893848 1.228302131073731 -3.152006863607191e-17)
(5.622718411460383 1.22830213524732 2.58245590252567e-17)
(5.695144329793186 1.235048747126401 -3.154783617260109e-17)
(5.695144334523766 1.235048751561307 2.488829079223118e-17)
(5.767641845445139 1.241318786034179 -3.356796383193959e-17)
(5.767641850362914 1.241318790755672 2.777254006939663e-17)
(5.840294340969075 1.247105875299709 -3.369268619131083e-17)
(5.840294346098689 1.247105880335361 2.945635015230733e-17)
(5.913181897043653 1.252401150698915 -2.994565977123712e-17)
(5.913181902412788 1.252401156078698 2.699512091468375e-17)
(5.986381593296753 1.257193260050447 -3.261267476015833e-17)
(5.986381598935786 1.25719326580677 2.647114025871424e-17)
(6.059967756567858 1.261468351211059 -3.72110718462487e-17)
(6.059967762508726 1.261468357378951 2.499005330155697e-17)
(6.134012158267026 1.265210046281334 -3.702065731207938e-17)
(6.134012164545935 1.265210052898335 2.700457845380958e-17)
(6.208584165956259 1.268399403759543 -3.712663066413262e-17)
(6.208584172610791 1.26839941086597 3.095654303974589e-17)
(6.283750853346385 1.271014870194293 -3.928251628904341e-17)
(6.283750860418449 1.271014877833276 3.088058548855007e-17)
(6.359577072195965 1.273032222746588 -3.979559315752081e-17)
(6.359577079728711 1.273032230963758 2.788280232630433e-17)
(6.436125488969344 1.274424503966131 -4.224083700504984e-17)
(6.436125497010053 1.274424512809731 2.683759213532961e-17)
(6.5134565886406 1.275161950019371 -4.233675768510843e-17)
(6.513456597238668 1.275161959540022 2.54335087412636e-17)
(6.59162865062776 1.275211913559643 -4.244396144710819e-17)
(6.591628659834926 1.275211923810118 2.34232287700524e-17)
(6.670697692609826 1.274538782291003 -4.588763935302395e-17)
(6.670697702480608 1.274538793325969 2.513913128196901e-17)
(6.750717382229093 1.273103894562629 -4.553354768322782e-17)
(6.750717392819936 1.27310390643809 2.467403949925992e-17)
(6.831738926794079 1.270865453161502 -4.717622631837395e-17)
(6.831738938162585 1.270865465934341 2.496266271352179e-17)
(6.913810938580536 1.267778438361501 -5.218682615417948e-17)
(6.913810950785826 1.267778452088437 2.802069648166054e-17)
(6.996979273704907 1.263794521510023 -5.70683638948203e-17)
(6.996979286806603 1.263794536247129 2.816538846049872e-17)
(7.081286846846315 1.258861980426128 -6.042664563296177e-17)
(7.081286860903333 1.258861996227544 3.018388003042529e-17)
(7.16677342240528 1.252925617936625 -6.074527858163093e-17)
(7.166773437476124 1.252925634853208 3.459495116415815e-17)
(7.253475382593965 1.245926684945056 -6.242733848104559e-17)
(7.253475398734222 1.24592670302316 3.835819962657969e-17)
(7.341425472862246 1.237802809505984 -6.624407608317402e-17)
(7.341425490125078 1.237802828785624 3.763385761988286e-17)
(7.430652524995603 1.228487933464891 -7.378386378668416e-17)
(7.430652543429009 1.228487953977684 3.879873600709413e-17)
(7.521181158136114 1.217912258324375 -8.032121404855604e-17)
(7.521181177783221 1.217912280091704 4.461331383794893e-17)
(7.613031457926699 1.206002202113658 -8.593917395389816e-17)
(7.613031478823312 1.206002225144184 4.050031986296327e-17)
(7.706218633893274 1.192680369164814 -8.969238975684329e-17)
(7.7062186560669 1.192680393451993 4.555741235237977e-17)
(7.800752655135246 1.177865534848977 -9.256113982352455e-17)
(7.800752678604409 1.177865560368632 5.688628111599708e-17)
(7.896637864330842 1.161472647489708 -9.458253484188534e-17)
(7.896637889102942 1.161472674197089 5.695170773966237e-17)
(7.993872570006561 1.143412849860054 -1.010045281499484e-16)
(7.993872596077544 1.143412877687371 5.475362645326355e-17)
(8.092448616991614 1.12359352288252 -1.027205311457637e-16)
(8.092448644345222 1.12359355173631 6.944873894782456e-17)
(8.192350934937645 1.10191835439142 -1.113291330380471e-16)
(8.192350963545945 1.101918384150379 8.004647485967739e-17)
(8.293557064782703 1.078287436086923 -1.329683977359881e-16)
(8.293557094606072 1.078287466600155 7.688357986609012e-17)
(8.396036663045479 1.052597392114799 -1.35625977048438e-16)
(8.396036694032329 1.052597423200289 8.145765778998703e-17)
(8.499750983890063 1.024741543041344 -1.456908346091796e-16)
(8.499751015984387 1.024741574485835 9.227975022873622e-17)
(8.604652338988911 0.9946101093726168 -1.58035309295687e-16)
(8.60465237212644 0.9946101409321013 1.04391562636095e-16)
(8.710683535328522 0.9620904591769082 -1.744326460659089e-16)
(8.710683569448047 0.9620904905787961 9.578496760671919e-17)
(8.817777291340015 0.927067404828221 -1.742327657040038e-16)
(8.817777326387272 0.9270674357747948 9.60478159770381e-17)
(8.925855631961824 0.8894235543779183 -1.656138037064525e-16)
(8.92585566789975 0.8894235845519066 1.265714914518441e-16)
(9.034829263634714 0.8490397235984345 -1.955428130579054e-16)
(9.034829300453026 0.8490397526705137 1.312135374933384e-16)
(9.144596930665719 0.8057954153093672 -2.198711583976596e-16)
(9.14459696839568 0.8057954429481207 1.21436734713254e-16)
(9.2550447549742 0.759569373200238 -2.225009061257724e-16)
(9.255044793703412 0.7595693990843639 1.298655980266916e-16)
(9.366045561953058 0.7102402179917588 -2.238590311228141e-16)
(9.366045601844021 0.7102402418246891 1.432400790352182e-16)
(9.477458196019477 0.6576871744275021 -2.33257705310485e-16)
(9.477458237329 0.6576871959538966 1.374484608573896e-16)
(9.589126830471272 0.6017908982430599 -2.405568751660612e-16)
(9.589126873568915 0.6017909172669522 1.402318251318656e-16)
(9.700880277486757 0.5424344129137006 -2.479813242500351e-16)
(9.700880322879044 0.5424344293169252 1.702507640836661e-16)
(9.812531305554437 0.4795041666097937 -2.726406861915872e-16)
(9.812531353894876 0.4795041803695354 1.900118009301126e-16)
(9.923875973283279 0.4128912203753149 -2.899530442877072e-16)
(9.923876025384079 0.4128912315786974 1.89835034455224e-16)
(10.03469299052192 0.3424925790589809 -2.863160242972979e-16)
(10.03469304734948 0.3424925879117477 1.988913891870333e-16)
(10.14474311994646 0.2682126769348288 -2.994260248655529e-16)
(10.14474318259541 0.2682126837611412 1.949067618033919e-16)
(10.25376863485332 0.1899650302113137 -3.365490070403226e-16)
(10.25376870449439 0.18996503544063 1.619606554677327e-16)
(10.36149285184155 0.1076740686932611 -3.11719709353238e-16)
(10.36149292962089 0.1076740728304441 1.777514701546787e-16)
(10.4676197603673 0.02127715866319435 -2.656178063655054e-16)
(10.46761984725583 0.02127716223880275 1.684956475029095e-16)
(10.57183377478242 -0.06927317162416133 -2.822102055124585e-16)
(10.57183387130068 -0.06927316818334171 1.284779974657087e-16)
(10.67379963824158 -0.1640067929863494 -2.670723819851454e-16)
(10.67379974475407 -0.1640067894405003 1.020705691777164e-16)
(10.7731625153787 -0.2629333142073107 -2.494776695908656e-16)
(10.77316263222605 -0.2629333106766193 1.027711418195416e-16)
(10.86954831068826 -0.3660391915991938 -2.35113194407769e-16)
(10.86954843815416 -0.3660391886853028 9.398961140422999e-17)
(10.96256425975385 -0.4732846053679242 -2.121979047570249e-16)
(10.96256439805189 -0.4732846042586275 7.742178646110792e-17)
(11.05179984449789 -0.5846001031083012 -1.964280498171347e-16)
(11.0517999937393 -0.5846001056755949 5.703259309362631e-17)
(11.13682809083957 -0.6998830159541494 -1.708607123265078e-16)
(11.13682825100106 -0.6998830248241059 -4.525258430301361e-18)
(11.21720731420487 -0.8189936598171025 -1.752982622075068e-16)
(11.21720748511049 -0.8189936784052194 -4.024480908255625e-17)
(11.29248338573753 -0.9417513429492801 -1.248855658550656e-16)
(11.29248356705153 -0.9417513754572876 -1.00991032238346e-16)
(11.36219259952465 -1.067930212073752 -5.286240263661251e-17)
(11.36219279075977 -1.06793026344755 -1.548812056781202e-16)
(11.42586522843765 -1.197254982827094 -6.164684535847849e-17)
(11.42586542897595 -1.197255058677927 -1.784117746790655e-16)
(11.48302986272864 -1.329396616226499 -5.775419332326495e-17)
(11.48303007184911 -1.329396722721028 -2.828541530704897e-16)
(11.53321863066314 -1.463968020398274 -3.862938379793072e-17)
(11.53321884757731 -1.463968164125029 -3.491014531816693e-16)
(11.5759734033861 -1.600519872613474 4.509895661854261e-18)
(11.57597362726953 -1.60052006043513 -4.110373154649008e-16)
(11.61085308677707 -1.738536661611811 1.337196586882273e-16)
(11.61085331679604 -1.738536900512637 -4.913048739862346e-16)
(11.6374421041937 -1.877433020776369 2.09109525781811e-16)
(11.63744233952295 -1.877433317713351 -4.64486880844071e-16)
(11.65536018996055 -2.016550301545794 1.380292655624749e-16)
(11.65536042978367 -2.016550663307473 -5.457894706417965e-16)
(11.66427369385232 -2.155152987068583 1.216745769100654e-16)
(11.6642739373509 -2.155153420140612 -6.627726112011138e-16)
(11.66390888874739 -2.292430751464542 2.669224178038758e-16)
(11.66390913507945 -2.292431261868484 -7.264734216854914e-16)
(11.65406577122247 -2.427503112445326 2.047202333940783e-16)
(11.6540660194924 -2.427503705837195 -7.883904137203241e-16)
(11.63463345695779 -2.559415941755821 1.559337127965497e-16)
(11.6346337061398 -2.559416623460248 -8.116564441718048e-16)
(11.60560821191818 -2.687145243432799 4.0603978354197e-16)
(11.60560846079022 -2.687146018283699 -8.451587163516935e-16)
(11.56711155875924 -2.80960993022632 2.212929020474511e-16)
(11.56711180582802 -2.809610802619872 -9.614473750303516e-16)
(11.51940956336991 -2.925683341391327 2.63310289148398e-17)
(11.51940980677653 -2.925684315388661 -8.977317403763779e-16)
(11.46293270494189 -3.034209531540092 3.010191639764868e-16)
(11.4629329423423 -3.034210611009552 -8.091996297080178e-16)
(11.39829557311295 -3.134025022533271 2.495723517726778e-16)
(11.39829580153324 -3.134026211326693 -1.016668865504673e-15)
(11.32631537220847 -3.223986769785748 8.254491337222563e-17)
(11.32631558786596 -3.223988071945588 -1.013346960150344e-15)
(11.24802786132395 -3.303007087496654 9.377801926148413e-17)
(11.24802805941224 -3.303008507485929 -9.561777996766354e-16)
(11.16469891775216 -3.370096168512879 1.843576519314863e-16)
(11.16469909219859 -3.370097711453262 -9.705929761971612e-16)
(11.07782940766899 -3.424412562788008 1.675831005703791e-16)
(11.0778295508473 -3.424414234705066 -9.476512287200784e-16)
(10.98915063625486 -3.465321451228295 4.361659042595659e-17)
(10.98915073841886 -3.46532325934348 -1.023461210533104e-15)
(10.90060794807438 -3.492459714286501 4.210409154764825e-17)
(10.90060799516074 -3.492461667312897 -8.306537680137041e-16)
(10.81433305766844 -3.505806168232735 1.178196382424895e-16)
(10.81433302421964 -3.505808275235089 -5.855387357294418e-16)
(10.73258382046494 -3.505759128012946 -2.048102499175474e-17)
(10.73258367439732 -3.505761392839602 -6.166545866772868e-16)
(10.65765304877718 -3.493206455817152 -1.072349412924097e-16)
(10.65765275861403 -3.493208874712213 -5.084213635179675e-16)
(10.59176547337688 -3.469583668426895 -2.07074248669883e-16)
(10.59176499584079 -3.46958622282536 -5.471239039872919e-16)
(10.53692947425596 -3.436912916415648 -1.180978886971064e-16)
(10.53692875168576 -3.4369155553467 -1.598737756296152e-16)
(10.49474641380679 -3.397795869535039 -2.25627991009118e-16)
(10.49474538990329 -3.397798494158226 -3.219834391358161e-16)
(10.46619679305888 -3.355347538153535 -3.469930678708408e-16)
(10.46619542791554 -3.355350009294527 -5.076124704026333e-16)
(10.45139062824746 -3.313020140489502 -1.750561806718637e-16)
(10.45138887234609 -3.313022281189885 3.13449647030715e-16)
(10.4493364753721 -3.274346568758161 -3.031983477813578e-16)
(10.449334249334 -3.274348252798016 6.689098750038361e-16)
(10.45759631426585 -3.242841669001808 -9.814389798640901e-16)
(10.45759346217405 -3.242843106238869 -2.451102194660694e-18)
(10.47161350006617 -3.221372004316829 4.286865720575711e-16)
(10.47160970610507 -3.221373297156433 1.640197596747898e-15)
(10.48634738196076 -3.209456264520846 -2.046861795754102e-15)
(10.48634214356187 -3.209457182332213 -2.226354517246995e-16)
(10.49972353223649 -3.204345155234121 9.623778500932272e-16)
(10.49971634213433 -3.204345623772322 3.014555228830741e-15)
(10.51122439195954 -3.204011926900689 -3.142171789139184e-15)
(10.51121487644803 -3.204011666879509 -7.403182108953525e-16)
(10.52065887574495 -3.206891985402265 1.347715514406643e-15)
(10.52064671057025 -3.206890541164845 3.913078967690268e-15)
(10.52801519148004 -3.211769774759183 -2.786541982777404e-15)
(10.52799998529599 -3.21176673614523 -1.055086920669209e-16)
(10.53331407599838 -3.217711386908694 -6.068244717171207e-16)
(10.53329538326326 -3.217706400590494 3.565235841154235e-15)
(10.53670240715537 -3.223934728900323 -6.518889492551376e-16)
(10.53667989280482 -3.223927469909643 3.222450632701978e-15)
(10.53857884470611 -3.229820278198444 -1.057440423094873e-15)
(10.53855223771994 -3.229810484609176 3.194243864320297e-15)
(10.5395154001989 -3.234939682422787 -1.514109805289065e-15)
(10.53948437202957 -3.234927125826252 2.752114261798167e-15)
(10.54015393934127 -3.239062797695273 -4.299345182957852e-16)
(10.54011810367258 -3.239047264364371 4.636781631918614e-15)
(10.54112971718821 -3.242213344753003 -1.28329218501035e-15)
(10.54108867616679 -3.242194615795079 4.522705167403704e-15)
(10.54295417862862 -3.24468357349333 6.214392961233326e-16)
(10.54290754510984 -3.244661383139043 5.962068158449693e-15)
(10.545900419688 -3.246941287114469 -2.040982899333287e-15)
(10.54584782251863 -3.246915317795974 4.66917128980871e-15)
(10.54995520093424 -3.249474987293874 -3.392101039678587e-16)
(10.54989628610855 -3.249444896811698 5.960539350341522e-15)
(10.55486164317034 -3.252645406512774 -2.195001501965765e-16)
(10.55479608057514 -3.252610852046558 6.990375640318161e-15)
(10.56023889163157 -3.256597215086056 -5.833572609055376e-16)
(10.56016638411149 -3.256557865615867 7.556457068465101e-15)
(10.56572859852478 -3.261256676512463 -2.097904917103868e-15)
(10.56564888478744 -3.261212216364228 5.556748011570801e-15)
(10.57110597795059 -3.266406119257913 -3.952029921473076e-16)
(10.57101882854285 -3.26635624703871 9.891003320808892e-15)
(10.57631526797228 -3.271793908377179 -2.021854891120187e-15)
(10.57622047860836 -3.271738335560561 7.725338343933578e-15)
(10.58143369075598 -3.277227561536066 1.484406204542119e-15)
(10.58133107684318 -3.277166010284144 1.34104248442526e-14)
(10.58659913813392 -3.282618969501913 -8.517563288136439e-15)
(10.58648853292982 -3.282551169562424 4.91343335871653e-15)
(10.59193948931993 -3.287979953948355 5.521567980595717e-15)
(10.59182074589034 -3.287905639974293 1.836630358790061e-14)
(10.59752839266309 -3.293383790281744 -1.453733311094341e-14)
(10.59740138754023 -3.293302699801449 1.970424172227633e-15)
(10.60337728786677 -3.298914644641182 8.639362185219802e-15)
(10.60324192426674 -3.298826516729055 2.60480327300528e-14)
(10.6094612282166 -3.304622277592886 -2.274127951377791e-14)
(10.60931743566542 -3.304526850515561 -5.269224446833041e-15)
(10.61576489470682 -3.310488072597181 1.422684012605066e-14)
(10.61561262085849 -3.310385076183806 3.67589228816813e-14)
(10.62229046813637 -3.316473657509679 -3.11749501317501e-14)
(10.62212966054761 -3.316362804046121 -1.145933869303938e-14)
(10.62978188744955 -3.322086084106854 1.512466023941561e-14)
(10.62961228404208 -3.321966893407337 5.187434132746069e-14)
(10.63784427877625 -3.328296089736752 -3.775572778643806e-14)
(10.63766602169812 -3.328168429092286 -3.23537907149324e-14)
(10.64578768631005 -3.337141971456716 7.513535094216012e-15)
(10.64559894692001 -3.337003746833053 9.993566646127411e-14)
)


// ************************************************************************* //
