/*--------------------------------*- C++ -*----------------------------------*\
| =========                 |                                                 |
| \\      /  F ield         | OpenFOAM: The Open Source CFD Toolbox           |
|  \\    /   O peration     | Version:  2212                                  |
|   \\  /    A nd           | Website:  www.openfoam.com                      |
|    \\/     M anipulation  |                                                 |
\*---------------------------------------------------------------------------*/
FoamFile
{
    version     2.0;
    format      ascii;
    arch        "LSB;label=32;scalar=64";
    note        "face data";
    class       scalarField;
    location    "/work/hetmann/EXASIM/WP5/basicSetup_Perdigao/00_caseFiles/Leipzig_profile/postProcessing/surfaces/precursor_profile/400000";
    object      p_rgh;
}
// * * * * * * * * * * * * * * * * * * * * * * * * * * * * * * * * * * * * * //


320
(
-0.000369101518615763
-0.0003691012122869934
-0.0003690923274832166
-0.0003690920211533342
-0.0003690820978626282
-0.0003690817915276832
-0.0003690712328759083
-0.0003690709265359019
-0.0003690599070536385
-0.0003690596007103062
-0.0003690481935231676
-0.0003690478871858558
-0.000369036119715585
-0.0003690358133886426
-0.0003690236961911035
-0.0003690233898886764
-0.0003690109261202543
-0.0003690106198475803
-0.0003689978091442727
-0.0003689975029297165
-0.0003689843430356078
-0.0003689840367919519
-0.0003689705245264499
-0.0003689702183344644
-0.0003689563501315221
-0.0003689560439115012
-0.0003689418157293696
-0.0003689415095856488
-0.0003689269152189455
-0.0003689266090136468
-0.000368911635899254
-0.0003689113297510415
-0.0003688959544783694
-0.0003688956483651392
-0.000368879846824204
-0.0003688795405427299
-0.0003688633573781646
-0.0003688630509862752
-0.0003688466559811004
-0.0003688463498388602
-0.0003688296020714193
-0.0003688292962943505
-0.0003688121867798138
-0.0003688118816718533
-0.0003687945503302344
-0.0003687942465318356
-0.0003687764980155027
-0.0003687761955805832
-0.0003687579549266827
-0.0003687576535724865
-0.0003687389244663308
-0.0003687386240350715
-0.0003687194114583056
-0.0003687191119833293
-0.0003686994082341702
-0.000368699109765854
-0.0003686788989525558
-0.000368678601499506
-0.0003686578647863918
-0.0003686575685643177
-0.0003686362858196549
-0.000368635990947013
-0.0003686141420278544
-0.0003686138484114556
-0.0003685914124647986
-0.0003685911202735138
-0.0003685680762474426
-0.000368567785449379
-0.0003685441128595266
-0.0003685438227983541
-0.0003685195006953869
-0.0003685192119245168
-0.0003684942167926466
-0.0003684939293777049
-0.0003684682344067414
-0.0003684679483619878
-0.0003684415434545398
-0.0003684412581374842
-0.0003684141611679843
-0.0003684138765211608
-0.0003683857610215037
-0.000368385477539953
-0.0003683563263749015
-0.0003683560447468173
-0.0003683261163614186
-0.0003683258371288321
-0.0003682950477319369
-0.0003682947707335793
-0.0003682630636771867
-0.0003682627886798298
-0.0003682301258655132
-0.0003682298529250353
-0.0003681961942545955
-0.0003681959230763653
-0.0003681612261435841
-0.0003681609569840736
-0.0003681251803282239
-0.0003681249125243188
-0.0003680880146911049
-0.000368087747818816
-0.00036804968737447
-0.0003680494225725784
-0.0003680101573944759
-0.0003680098951285602
-0.0003679693836418964
-0.0003679691234976032
-0.0003679273261179809
-0.0003679270676570985
-0.0003678839477134726
-0.0003678836909415294
-0.0003678392169818571
-0.000367838961476832
-0.0003677931096349967
-0.0003677928557287677
-0.0003677456013532366
-0.0003677453499082771
-0.0003676966612657441
-0.0003676964123237759
-0.0003676462310437089
-0.0003676459836313872
-0.0003675940853120111
-0.0003675938374699568
-0.0003675402040364222
-0.0003675399536076774
-0.0003674847426724565
-0.0003674844887908489
-0.0003674276742019672
-0.000367427417487684
-0.0003673689430212928
-0.0003673686835149592
-0.000367308481036872
-0.0003673082193192309
-0.0003672462194059852
-0.0003672459555560668
-0.000367182092067517
-0.000367181825872312
-0.0003671160310929706
-0.0003671157623208142
-0.0003670479674082781
-0.0003670476960962596
-0.0003669778259731467
-0.0003669775526201099
-0.0003669055246381614
-0.0003669052499486065
-0.0003668309767916622
-0.0003668307000838912
-0.0003667540839005043
-0.0003667538053765707
-0.0003666747431518019
-0.0003666744610693228
-0.0003665928437576225
-0.0003665925580510279
-0.000366508268139122
-0.0003665079794632297
-0.0003664208986720959
-0.0003664206084653313
-0.0003663306304124377
-0.0003663303382734606
-0.0003662373659913736
-0.0003662370727925055
-0.0003661410324341867
-0.0003661407366429641
-0.0003660414787195922
-0.0003660411800083878
-0.000365938441279913
-0.0003659381417702493
-0.0003658316737906244
-0.0003658313744306728
-0.0003657209391518522
-0.0003657206394575585
-0.0003656060102654314
-0.0003656057102278758
-0.0003654866635569721
-0.0003654863640862222
-0.0003653626730006338
-0.0003653623759654907
-0.0003652339455262292
-0.0003652336471380966
-0.0003651002064411985
-0.0003650999030938582
-0.000364960937972148
-0.0003649606301707591
-0.0003648157440845228
-0.0003648154335797695
-0.0003646642136792386
-0.0003646639038748928
-0.0003645059233668054
-0.0003645056102370799
-0.0003643404141089691
-0.0003643400988364852
-0.0003641671960252748
-0.0003641668812027939
-0.00036398573816926
-0.0003639854237254177
-0.0003637954630188537
-0.0003637951491908659
-0.0003635957376554682
-0.0003635954236549906
-0.0003633858769916418
-0.0003633855631275946
-0.0003631651325863439
-0.000363164817958
-0.0003629326839761575
-0.0003629323702572695
-0.0003626876380595355
-0.0003626873258783278
-0.0003624290144409562
-0.0003624287023566183
-0.0003621557332572993
-0.0003621554249239338
-0.0003618666090726908
-0.0003618663062931043
-0.0003615603221209716
-0.0003615600247387185
-0.0003612353972301401
-0.0003612351085568601
-0.0003608908294357277
-0.0003608905378053177
-0.0003605248069502404
-0.0003605245144004768
-0.0003601348702715009
-0.0003601345741676873
-0.0003597187939055294
-0.0003597184963688234
-0.0003592740739504039
-0.000359273777483637
-0.0003587978896915401
-0.0003587975992804564
-0.0003582870567307303
-0.0003582867769665071
-0.0003577379850565793
-0.000357737707431031
-0.0003571465744405728
-0.0003571462973948801
-0.0003565081091729401
-0.0003565078278482176
-0.0003558179249611573
-0.0003558176333912195
-0.0003550701720793973
-0.0003550698527795788
-0.0003542568188029046
-0.0003542564683534062
-0.0003533697401163474
-0.0003533693445128474
-0.0003523993225591628
-0.0003523988546930053
-0.0003513342494051823
-0.0003513336986086842
-0.0003501612197151668
-0.0003501605761965129
-0.0003488646100176632
-0.0003488638819768725
-0.0003474257497881855
-0.0003474249443047406
-0.000345822187103995
-0.0003458213092602031
-0.0003440267867797684
-0.000344025855686506
-0.0003420065488599275
-0.0003420055722997746
-0.0003397207363984683
-0.0003397197264990779
-0.0003371185363552706
-0.0003371174941021349
-0.0003341359015525534
-0.0003341348273899166
-0.000330690852264775
-0.0003306897314202137
-0.0003266763932092669
-0.0003266751608923962
-0.0003219499690280465
-0.0003219485968969471
-0.0003163194561684882
-0.000316317964103348
-0.0003095295740024463
-0.0003095281863341735
-0.0003012849427361411
-0.0003012841163118884
-0.0002914221493753271
-0.0002914220391218815
-0.0002802621570471888
-0.0002802621154499913
-0.0002681526308693531
-0.0002681520977895196
-0.0002548728908632008
-0.000254872269810227
-0.0002404325179424336
-0.0002404319464631733
-0.0002252294720235558
-0.0002252288961602657
-0.000209506493505259
-0.0002095060567912628
-0.0001933903465779958
-0.0001933901405588297
-0.0001769978690537496
-0.0001769977814937748
-0.0001604345136878696
-0.0001604344849770477
-0.0001437763053148716
-0.0001437763047857005
-0.0001270820170957586
-0.0001270820180840132
-0.0001104165550323028
-0.000110416598174029
-9.386964695040967e-05
-9.386974154139858e-05
-7.755747988822516e-05
-7.75575901525853e-05
-6.163703453566422e-05
-6.163713849872038e-05
-4.630823970547483e-05
-4.630840879545261e-05
-3.184849830314638e-05
-3.184856218095418e-05
-1.864570244163995e-05
-1.864599040060319e-05
-7.344711317851037e-06
-7.344677797112662e-06
1.887681066712565e-09
1.51324980029733e-09
)


// ************************************************************************* //
