/*--------------------------------*- C++ -*----------------------------------*\
| =========                 |                                                 |
| \\      /  F ield         | OpenFOAM: The Open Source CFD Toolbox           |
|  \\    /   O peration     | Version:  2212                                  |
|   \\  /    A nd           | Website:  www.openfoam.com                      |
|    \\/     M anipulation  |                                                 |
\*---------------------------------------------------------------------------*/
FoamFile
{
    version     2.0;
    format      ascii;
    arch        "LSB;label=32;scalar=64";
    note        "face data";
    class       vectorField;
    location    "/work/hetmann/EXASIM/WP5/basicSetup_Perdigao/00_caseFiles/Leipzig_profile/postProcessing/surfaces/precursor_profile/400000";
    object      U;
}
// * * * * * * * * * * * * * * * * * * * * * * * * * * * * * * * * * * * * * //


320
(
(1.901954345217946 0.928353439010049 -9.607242227901162e-16)
(1.901954345217382 0.9283534390098561 5.003603212099745e-16)
(3.325622961998352 1.615988947756723 -1.99032445717949e-15)
(3.325622961997408 1.615988947756455 9.310753780554561e-16)
(4.107624440638514 1.990068162959961 -2.808987965196468e-15)
(4.107624440637256 1.990068162959627 1.226979638039651e-15)
(4.654483567686219 2.249239362555575 -3.424399094934018e-15)
(4.654483567684838 2.249239362555216 1.457176767754062e-15)
(5.076980115375325 2.447646710034703 -3.911522352762282e-15)
(5.076980115373772 2.447646710034357 1.647959508913121e-15)
(5.422629698917685 2.608495898323625 -4.328441375413635e-15)
(5.422629698916175 2.60849589832324 1.814284035336789e-15)
(5.716377241218127 2.743953342000345 -4.701147419404836e-15)
(5.71637724121654 2.743953341999904 1.965008463970374e-15)
(5.972853016150906 2.861145621906545 -5.041986097809142e-15)
(5.972853016149148 2.861145621906097 2.106573726911935e-15)
(6.201344175296189 2.964590632855015 -5.357548388696347e-15)
(6.201344175294276 2.964590632854481 2.243781648391193e-15)
(6.408105554518353 3.057326683513805 -5.655568702442346e-15)
(6.4081055545165 3.057326683513314 2.373764420464612e-15)
(6.597547704015579 3.141492586024109 -5.973675034849259e-15)
(6.597547704013525 3.141492586023534 2.463655775595692e-15)
(6.772896926093471 3.218649737839678 -6.335217481812757e-15)
(6.772896926091434 3.218649737839069 2.495660704857282e-15)
(6.936585212828309 3.289972290258981 -6.555933948743683e-15)
(6.936585212826078 3.289972290258343 2.662132782409301e-15)
(7.090492393150129 3.356365173099548 -6.593393401700314e-15)
(7.090492393147922 3.356365173098864 3.024286919841032e-15)
(7.236102840137931 3.418540429952561 -9.634856991681328e-15)
(7.236102840135568 3.418540429951759 3.72640028373602e-16)
(7.374610468921258 3.47706833202326 -2.223167668964898e-14)
(7.374610468918687 3.477068332022519 -1.184870384836464e-14)
(7.506991203063287 3.532412629931606 -1.220699624399129e-14)
(7.506991203060615 3.532412629930752 -7.200171298731089e-16)
(7.634054283856954 3.584955492477614 1.598745129967217e-13)
(7.634054283854141 3.584955492476702 1.748927147549489e-13)
(7.75647941846788 3.635015544142676 2.936286291373713e-13)
(7.756479418464954 3.635015544141659 3.073270117214577e-13)
(7.874844207953693 3.682861166399729 -1.52153380702256e-12)
(7.874844207950584 3.682861166398648 -1.542739815906355e-12)
(7.98964475356194 3.728720475421605 -5.181283328682901e-12)
(7.989644753558633 3.728720475420395 -5.215117531133822e-12)
(8.101311379954153 3.772788920696415 -7.071365434057208e-12)
(8.101311379950918 3.772788920695185 -7.082135072659346e-12)
(8.210220800544114 3.815235150032847 -6.925936116034281e-12)
(8.210220800540384 3.815235150031549 -6.934167929294484e-12)
(8.3167056487805 3.856205590798571 -6.751932490455414e-12)
(8.316705648776825 3.856205590797209 -6.760751305364967e-12)
(8.42106203080912 3.895828066459154 -6.743050240128387e-12)
(8.421062030804851 3.895828066457745 -6.751880756600745e-12)
(8.52355557191086 3.934214678370896 -6.755504098332272e-12)
(8.52355557190694 3.934214678369291 -6.763714764009612e-12)
(8.624426302237367 3.971464120963019 -6.758366750741107e-12)
(8.62442630223272 3.971464120961385 -6.766063747047142e-12)
(8.723892637760146 4.007663554887199 -6.758410150824182e-12)
(8.723892637755535 4.007663554885458 -6.765584278608066e-12)
(8.82215464833147 4.042890131548067 -6.75869194114637e-12)
(8.82215464832646 4.042890131546192 -6.765304300949392e-12)
(8.91939675819706 4.07721223984638 -6.759142360983204e-12)
(8.919396758191333 4.077212239844402 -6.765156809093824e-12)
(9.015789990156573 4.110690529386041 -6.759598115033337e-12)
(9.015789990150237 4.110690529384098 -6.764968592922747e-12)
(9.111493839096621 4.143378752081096 -6.760070185517293e-12)
(9.111493839089853 4.143378752078842 -6.764762623542181e-12)
(9.206657841454753 4.175324454867734 -6.760457605300974e-12)
(9.206657841447488 4.175324454865454 -6.764443957426684e-12)
(9.30142289258486 4.206569549226229 -6.760783100869885e-12)
(9.30142289257698 4.206569549223977 -6.764035153296713e-12)
(9.395922352699401 4.237150777861366 -6.763434597270229e-12)
(9.395922352690475 4.237150777858953 -6.765924156904732e-12)
(9.490282973292791 4.267100094766873 -6.773255711446912e-12)
(9.490282973282955 4.267100094764382 -6.774890520893899e-12)
(9.584625668932786 4.296444971696006 -6.765518570007668e-12)
(9.584625668922065 4.296444971693514 -6.766382415393111e-12)
(9.679066153719674 4.325208641558211 -6.625965898193654e-12)
(9.679066153707321 4.325208641555619 -6.628388644526382e-12)
(9.773715457054049 4.353410287290663 -6.515417435491226e-12)
(9.77371545704057 4.353410287288099 -6.516318950695074e-12)
(9.86868032950526 4.381065183214192 -8.115062242290261e-12)
(9.8686803294901 4.381065183211769 -8.096060550120866e-12)
(9.96406354601802 4.408184794648498 -1.131193319900215e-11)
(9.964063546001451 4.408184794646043 -1.127279195259267e-11)
(10.05996411119789 4.434776840699536 -1.29233624708616e-11)
(10.05996411117975 4.43477684069682 -1.288482270878823e-11)
(10.15647736870303 4.460845324485339 -1.278820746240977e-11)
(10.15647736868318 4.460845324482889 -1.27505238929829e-11)
(10.25369501385779 4.486390534418515 -1.263734043731334e-11)
(10.25369501383607 4.486390534415965 -1.259736696144854e-11)
(10.35170500782906 4.511409020268439 -1.263095343600772e-11)
(10.35170500780515 4.511409020266179 -1.258983740912116e-11)
(10.45059139151642 4.535893548116922 -1.264298609253734e-11)
(10.45059139148973 4.535893548114758 -1.260037859736014e-11)
(10.55043399848936 4.559833038957872 -1.264637964985427e-11)
(10.55043399846045 4.559833038956175 -1.260216842530269e-11)
(10.65130807065816 4.583212497121347 -1.264721072361121e-11)
(10.65130807062623 4.583212497119911 -1.260130777008377e-11)
(10.75328378801882 4.606012936558776 -1.264830286086087e-11)
(10.75328378798348 4.606012936557877 -1.260062016149481e-11)
(10.85642573509423 4.628211315171864 -1.264961428628457e-11)
(10.85642573505569 4.628211315171724 -1.260004507709783e-11)
(10.96079234094663 4.649780489315932 -1.265099088452722e-11)
(10.96079234090464 4.649780489316801 -1.259941260303159e-11)
(11.06643534501458 4.670689201696091 -1.265243062678567e-11)
(11.06643534496881 4.670689201697981 -1.259870335556277e-11)
(11.17339935418904 4.690902115250814 -1.265375468423928e-11)
(11.17339935413962 4.69090211525402 -1.25977263173363e-11)
(11.28172156293993 4.71037990254993 -1.265488206006241e-11)
(11.28172156288621 4.710379902554725 -1.259639072259149e-11)
(11.39143170322922 4.729079394337716 -1.265875113931708e-11)
(11.39143170317157 4.729079394344541 -1.25976172365573e-11)
(11.50255227138103 4.746953782583622 -1.267192519597853e-11)
(11.50255227131947 4.746953782592415 -1.260802187508279e-11)
(11.61509904612218 4.763952864176662 -1.26649803045167e-11)
(11.61509904605624 4.763952864187942 -1.259771536653224e-11)
(11.7290818719977 4.780023303471717 -1.249085212715953e-11)
(11.72908187192797 4.780023303485848 -1.24197041857723e-11)
(11.84450564563522 4.795108887466282 -1.234331036276437e-11)
(11.84450564556142 4.795108887483453 -1.226966373890006e-11)
(11.96137141908777 4.809150747766292 -1.44280088252318e-11)
(11.9613714190095 4.809150747787339 -1.43659392932121e-11)
(12.07967129491296 4.822086846303779 -1.869113964115664e-11)
(12.07967129482964 4.822086846328937 -1.862422710875424e-11)
(12.19938851325151 4.833852251685201 -2.088535954328819e-11)
(12.19938851316235 4.83385225171495 -2.079831438692818e-11)
(12.32051015697817 4.844380518389259 -2.070608796843977e-11)
(12.32051015688237 4.844380518423982 -2.061480437471356e-11)
(12.44302829866921 4.853603470858026 -2.050537788045516e-11)
(12.44302829856765 4.853603470898272 -2.040991671750757e-11)
(12.56693437239819 4.861450467636471 -2.050027360260687e-11)
(12.56693437229153 4.861450467682703 -2.040028210086493e-11)
(12.69221944123835 4.867848281852668 -2.051849843282568e-11)
(12.69221944112723 4.867848281905023 -2.041312906119206e-11)
(12.81887430792522 4.872720944717392 -2.052482025671161e-11)
(12.81887430781071 4.872720944776862 -2.041368921579313e-11)
(12.94688948659624 4.875989561641322 -2.052811777547272e-11)
(12.94688948647919 4.875989561707745 -2.041090279525777e-11)
(13.07625505331498 4.877572109695113 -2.053224629956861e-11)
(13.07625505319763 4.877572109768999 -2.040851843624583e-11)
(13.2069603970166 4.877383224173019 -2.053698070205012e-11)
(13.20696039689956 4.877383224254546 -2.040633840138081e-11)
(13.33899388121194 4.875333980714545 -2.054204013301399e-11)
(13.33899388109657 4.875333980803973 -2.040404476106661e-11)
(13.47234240403247 4.871331679629512 -2.054739669776303e-11)
(13.4723424039215 4.87133167972679 -2.040155750847856e-11)
(13.60699089013107 4.865279638814386 -2.055276263945709e-11)
(13.60699089002586 4.865279638919505 -2.039856376289356e-11)
(13.74292173021232 4.857076999813048 -2.055776701482923e-11)
(13.74292173011485 4.85707699992487 -2.039466070409402e-11)
(13.88011414926999 4.846618552920607 -2.056627916072654e-11)
(13.88011414918283 4.846618553039058 -2.039380551898929e-11)
(14.01854351690331 4.833794586751703 -2.059007385156813e-11)
(14.01854351682914 4.833794586875238 -2.040796979775166e-11)
(14.15818060394853 4.818490767704078 -2.059339287315498e-11)
(14.15818060389001 4.818490767831006 -2.03996014452694e-11)
(14.2989907900391 4.80058805470887 -2.034428217621734e-11)
(14.2989907899989 4.800588054837045 -2.013412910162148e-11)
(14.44093322777395 4.779962654465832 -2.003783466376821e-11)
(14.44093322775554 4.77996265459317 -1.981979215079303e-11)
(14.5839599710325 4.756486022029911 -2.314228519224396e-11)
(14.58395997103637 4.756486022157688 -2.300742452064882e-11)
(14.72801336755946 4.730025224053868 -3.074709007150115e-11)
(14.72801336758462 4.730025224186033 -3.061750666566722e-11)
(14.87302449915846 4.700443309754682 -3.523865712046281e-11)
(14.87302449920514 4.700443309894725 -3.501008731460937e-11)
(15.0189152392362 4.667598999689621 -3.492165570224709e-11)
(15.01891523930438 4.667598999839524 -3.467312854922395e-11)
(15.1655974893662 4.631346821315057 -3.456161082293473e-11)
(15.16559748945827 4.63134682147183 -3.430457032981649e-11)
(15.31297034479742 4.591537841622086 -3.45595702776875e-11)
(15.31297034491636 4.591537841779272 -3.428685407739969e-11)
(15.46091889721422 4.548020202070698 -3.431451136923901e-11)
(15.46091889736199 4.548020202220937 -3.401449542955042e-11)
(15.6093130133888 4.500639773678542 -3.397205379918266e-11)
(15.6093130135679 4.500639773813429 -3.365961219567293e-11)
(15.75800610227974 4.449240942205204 -3.766897503183494e-11)
(15.75800610249409 4.449240942325543 -3.745587258182657e-11)
(15.90683327397874 4.393667759884988 -4.621452102532524e-11)
(15.90683327423404 4.393667759997609 -4.602027842339666e-11)
(16.05560982993974 4.333765207663665 -5.096042904221596e-11)
(16.05560983024323 4.333765207774641 -5.065953053043396e-11)
(16.20413103984765 4.269380123969846 -5.054540010586452e-11)
(16.2041310402046 4.269380124084742 -5.022146544103409e-11)
(16.35217102578899 4.200362597118739 -5.015912039830827e-11)
(16.35217102620136 4.200362597232195 -4.981935110499627e-11)
(16.49948097929148 4.12656789550419 -5.017195760469903e-11)
(16.49948097976069 4.126567895607494 -4.981275274236294e-11)
(16.64578800734973 4.047858414733486 -5.021476481429899e-11)
(16.64578800787327 4.047858414818736 -4.983380587454633e-11)
(16.79079406243868 3.96410587158995 -5.023184561536846e-11)
(16.79079406301329 3.964105871649656 -4.982943582319752e-11)
(16.93417498363031 3.875193761418874 -5.024540687711506e-11)
(16.93417498425499 3.875193761446377 -4.982173669891387e-11)
(17.07557968029788 3.781020095355649 -5.026130193495399e-11)
(17.07557968096951 3.781020095344817 -4.981676052485284e-11)
(17.21462949468052 3.681500433097031 -5.02782565720637e-11)
(17.21462949539482 3.681500433041961 -4.981350590438361e-11)
(17.35091778499071 3.576571225678191 -5.029552174413935e-11)
(17.35091778574189 3.576571225573793 -4.981161741692898e-11)
(17.48400977687951 3.46619348081285 -5.031276483819656e-11)
(17.48400977766337 3.466193480654058 -4.981128583353551e-11)
(17.61344273801317 3.350356760564149 -5.032952073791679e-11)
(17.61344273882212 3.350356760346453 -4.981239821354022e-11)
(17.73872653824765 3.229083517231819 -5.034381802818572e-11)
(17.73872653907247 3.229083516951333 -4.981380537987975e-11)
(17.85934466653698 3.102433768028596 -5.035655621360499e-11)
(17.85934466736746 3.102433767681682 -4.981751744076052e-11)
(17.97475578517091 2.970510102031531 -5.039337908915624e-11)
(17.97475578599403 2.970510101615307 -4.98497571385875e-11)
(18.08439591227172 2.833463003531818 -5.04491283618547e-11)
(18.08439591307172 2.833463003044562 -4.990561415236855e-11)
(18.18768133451591 2.691496463653243 -5.00238444908328e-11)
(18.18768133526978 2.691496463096871 -4.948313642671439e-11)
(18.28401236360756 2.544873836132432 -4.895277820623357e-11)
(18.28401236428424 2.544873835508628 -4.84217980273239e-11)
(18.37277806291602 2.393923871079427 -5.648425839071006e-11)
(18.37277806350794 2.393923870392599 -5.611055373241692e-11)
(18.45336203531867 2.239046921314685 -7.292043235721922e-11)
(18.45336203587134 2.239046920545706 -7.269415195829376e-11)
(18.52514947961309 2.080721131211812 -8.029782487587218e-11)
(18.52514948018327 2.080721130342241 -8.007969350943157e-11)
(18.58753571889524 1.919508324204683 -7.889816572245592e-11)
(18.58753571955616 1.919508323230678 -7.874692460387777e-11)
(18.63993623432673 1.756059615170906 -7.842592473306825e-11)
(18.63993623510879 1.756059614101246 -7.836834915023718e-11)
(18.68179838675602 1.591120524096374 -7.845102031194828e-11)
(18.68179838773249 1.591120522933663 -7.850912650056519e-11)
(18.71261503475883 1.425535171166729 -7.839918420239483e-11)
(18.71261503607972 1.42553516990184 -7.86011753164389e-11)
(18.73194015937518 1.26024929024154 -7.836685402104168e-11)
(18.73194016130397 1.260249288849486 -7.873777417570054e-11)
(18.73940662410304 1.096311746908319 -7.809432174794307e-11)
(18.73940662707656 1.096311745338822 -7.868474142008486e-11)
(18.73474622378136 0.9348741785612339 -7.639044641403204e-11)
(18.73474622849158 0.9348741767224027 -7.722162080526591e-11)
(18.71781200594335 0.7771864275599178 -8.330157319626968e-11)
(18.71781201339391 0.777186425278348 -8.445428972495989e-11)
(18.68860234606211 0.6245880557193072 -1.015913221087968e-10)
(18.68860235751535 0.6245880526867824 -1.03184612949798e-10)
(18.6472867871564 0.4784967170699662 -1.094821135629358e-10)
(18.64728680426647 0.4784967128009039 -1.115284802264962e-10)
(18.59423328070845 0.340390802391251 -1.070092501462777e-10)
(18.59423330527618 0.3403907964262427 -1.095315558490367e-10)
(18.53003605542998 0.2117853341644831 -1.06674710657135e-10)
(18.53003608853196 0.2117853262649922 -1.097422665037491e-10)
(18.45554304040273 0.0942000885915984 -1.064057120532825e-10)
(18.45554308109012 0.09420007910372971 -1.100935505787723e-10)
(18.37188136763427 -0.01088128747142596 -1.06008427171176e-10)
(18.37188141108626 -0.01088129711389713 -1.104086353676064e-10)
(18.28047876556507 -0.1020624244305844 -1.056258710467219e-10)
(18.28047880767053 -0.1020624344449055 -1.107517961782201e-10)
(18.18307701244061 -0.1780976511338594 -1.052106968251129e-10)
(18.18307705209764 -0.1780976628208293 -1.111324724861106e-10)
(18.08173431095564 -0.2379663844011432 -1.047741914781873e-10)
(18.08173434940714 -0.2379664006468397 -1.115162004271973e-10)
(17.97881406052675 -0.2809575522235342 -1.043121211338501e-10)
(17.97881410097876 -0.2809575783190859 -1.118903622041083e-10)
(17.87695411708822 -0.3067643722332066 -1.038071422885019e-10)
(17.87695416454761 -0.3067644176051136 -1.122209611928581e-10)
(17.77900745796983 -0.3155875603295121 -1.032643956969914e-10)
(17.77900751952021 -0.3155876419056539 -1.124922630492996e-10)
(17.68794587661698 -0.3082399954278053 -1.025899679214783e-10)
(17.68794596293643 -0.3082401438900324 -1.125948438083694e-10)
(17.60672055450531 -0.2862421509152487 -1.019744340728179e-10)
(17.60672068412432 -0.2862424221076685 -1.127010156853377e-10)
(17.53807002577993 -0.2518924456106585 -1.008679728901914e-10)
(17.53807023701835 -0.2518929410699846 -1.122285810887711e-10)
(17.48427547353996 -0.208290164343034 -1.007241008288544e-10)
(17.48427585716203 -0.2082910694532993 -1.127277588264152e-10)
(17.44686678239859 -0.1592834412013225 -9.848697814776736e-11)
(17.44686755867512 -0.1592850994734955 -1.109319163503873e-10)
(17.42629509968741 -0.1093166879625786 -1.019685565846364e-10)
(17.42629675600887 -0.1093197393283795 -1.151694244870684e-10)
(17.42158197378745 -0.06311419311784217 -9.415098132675743e-11)
(17.42158538790108 -0.06311974129003209 -1.073651176775631e-10)
(17.43003643485216 -0.02509068799358671 -1.060809394011204e-10)
(17.43004270782419 -0.02510015848830381 -1.196583723193065e-10)
(17.44726049999333 0.00148080045705374 -1.040728414191669e-10)
(17.44727022220141 0.001466516781982214 -1.167198537239776e-10)
(17.46769615610011 0.01542215818916513 -6.779352026268759e-11)
(17.46770970465067 0.01540290695570741 -8.207930396730007e-11)
(17.48589685759697 0.01828883856609181 -1.115972508053688e-10)
(17.48591540429221 0.01826461584113255 -1.262927439359268e-10)
(17.49815649152579 0.01402696666658677 -7.410689729629916e-11)
(17.49818185666559 0.01399750641153575 -8.974955497325709e-11)
(17.50364622301253 0.007502637565632287 -1.231383701688374e-10)
(17.50368017799153 0.007467594041670694 -1.321031959419289e-10)
(17.50429943355773 0.002408776631054392 -9.459437193465428e-11)
(17.50434312665554 0.002368080575708832 -1.107648165391751e-10)
(17.50305960848681 -8.96419383807799e-05 -1.452108505703602e-10)
(17.50311366931329 -0.0001357390721757802 -1.558294071378005e-10)
(17.50189076746706 -0.0007460095305021845 -1.110084354854866e-10)
(17.50195569103878 -0.0007971904668567041 -1.307340546589441e-10)
(17.50133690192476 -0.0006309117584413124 -1.578032447819106e-10)
(17.50141313581894 -0.0006869284021131681 -1.646013317371205e-10)
(17.50128624309544 -0.0003392417376336773 -1.356091035236901e-10)
(17.50137425623118 -0.0003998968611856639 -1.589175144484976e-10)
(17.5015391102513 -0.0001006663531143964 -1.193493129773475e-10)
(17.50163875071389 -0.0001656674065628123 -1.224954742889248e-10)
(17.50193699564729 2.475797187224756e-05 -2.087141899272208e-10)
(17.50204843972293 -4.43970423689491e-05 -2.397175823111994e-10)
(17.50237834172506 5.969543165370095e-05 -5.173059819096707e-11)
(17.50250168629252 -1.34524348396659e-05 -4.749753758618382e-11)
(17.50282261744887 5.100425122930369e-05 -2.853535965739881e-10)
(17.5029578181107 -2.596076184272098e-05 -3.271699559271591e-10)
(17.50326669016547 3.37730640981297e-05 8.511100193471229e-11)
(17.50341360830959 -4.682390426301674e-05 1.010725295273724e-10)
(17.50371882332238 2.270169546726562e-05 -4.24580113882639e-10)
(17.5038772182341 -6.133406670772793e-05 -4.833305510736926e-10)
(17.50418288555867 1.850624472866192e-05 3.009106779737803e-10)
(17.5043523963753 -6.876280590419573e-05 3.363435162584353e-10)
(17.50465356006439 1.713921019000195e-05 -6.598033882279714e-10)
(17.50483367853351 -7.313933235224478e-05 -7.449046136469303e-10)
(17.50511755069326 1.536461408773172e-05 6.105772304958785e-10)
(17.50530757996989 -7.767162228578385e-05 6.775481054493059e-10)
(17.50555551445528 1.186345158901585e-05 -1.014626141867866e-09)
(17.50575450215023 -8.363623238022671e-05 -1.140512838363933e-09)
(17.50593960922392 6.84950144068883e-06 1.02664503917165e-09)
(17.50614616735358 -9.072977825857222e-05 1.144312321289497e-09)
(17.50619171653682 2.924036737105302e-06 -1.501270245580855e-09)
(17.50640269414662 -9.581467940711589e-05 -1.69021258083371e-09)
)


// ************************************************************************* //
