/*--------------------------------*- C++ -*----------------------------------*\
| =========                 |                                                 |
| \\      /  F ield         | OpenFOAM: The Open Source CFD Toolbox           |
|  \\    /   O peration     | Version:  v2212                                 |
|   \\  /    A nd           | Website:  www.openfoam.com                      |
|    \\/     M anipulation  |                                                 |
\*---------------------------------------------------------------------------*/
FoamFile
{
    version     2.0;
    format      ascii;
    class       volScalarField;
    object      nut;
}
// * * * * * * * * * * * * * * * * * * * * * * * * * * * * * * * * * * * * * //

#include        "${FOAM_CASE}/system/include/caseDefinition"

// calculate nut value at inlet
nutref          #eval{ $viscRatio * $nuref };

dimensions      [ 0 2 -1 0 0 0 0 ];
internalField   uniform $nutref;

boundaryField
{
    // inlet
    "ii_.*"
    {
        type            calculated;
        value           $internalField;
    }

    // outlet
    "oo_.*"
    {
        type            calculated;
        value           $internalField;
    }

    // mixed inlet-outlet
    "io_.*"
    {
        type            calculated;
        value           $internalField;
    }

    // no-slip wall
    "ww_.*"
    {
        type            nutUSpaldingWallFunction;
        value           $internalField;
        tolerance       1e-9;
    }

    // moving no-slip wall
    "wm_.*"
    {
        type            nutUSpaldingWallFunction;
        value           $internalField;
        tolerance       1e-9;
    }

    #include            "include/constraintPatches"
}

// ************************************************************************* //
