/*--------------------------------*- C++ -*----------------------------------*\
| =========                 |                                                 |
| \\      /  F ield         | OpenFOAM: The Open Source CFD Toolbox           |
|  \\    /   O peration     | Version:  2212                                  |
|   \\  /    A nd           | Website:  www.openfoam.com                      |
|    \\/     M anipulation  |                                                 |
\*---------------------------------------------------------------------------*/
FoamFile
{
    version     2.0;
    format      ascii;
    arch        "LSB;label=32;scalar=64";
    note        "face data";
    class       scalarField;
    location    "/work/hetmann/EXASIM/WP5/basicSetup_Perdigao/00_caseFiles/Leipzig_profile/postProcessing/surfaces/precursor_profile/400000";
    object      alphat;
}
// * * * * * * * * * * * * * * * * * * * * * * * * * * * * * * * * * * * * * //


320
(
0.347167492575425
0.347167492575316
0.8827573556707258
0.8827573556704051
1.411169254487453
1.411169254486901
1.955207777086633
1.95520777708588
2.517934281964133
2.517934281963018
3.095537640888482
3.095537640887057
3.686006214283187
3.686006214281336
4.288078071207395
4.288078071205156
4.900826112890689
4.900826112887821
5.523473138088141
5.523473138084808
6.155300890973484
6.15530089096943
6.795601640629144
6.795601640624503
7.443650747996164
7.443650747990755
8.098690417320764
8.098690417314543
8.759919859362139
8.759919859354978
9.426489412270401
9.426489412262153
10.09749730227868
10.09749730226907
10.77198831226285
10.77198831225219
11.44895394086699
11.44895394085477
12.12733380908776
12.12733380907388
12.80601816924535
12.80601816922942
13.48385142543454
13.48385142541651
14.15963660536379
14.1596366053433
14.8321407362273
14.8321407362042
15.50010108180226
15.50010108177598
16.16223219656872
16.1622321965386
16.81723374662054
16.81723374658608
17.463799039246
17.46379903920633
18.10062419410637
18.10062419406054
18.72641787996285
18.72641787991137
19.3399115327667
19.33991153270915
19.93986996453854
19.93986996447336
20.52510226859852
20.52510226852385
21.09447292604494
21.09447292596138
21.64691302194191
21.64691302184728
22.18143148788527
22.18143148777997
22.69712630165004
22.69712630153067
23.19319559468008
23.1931955945474
23.6689486450409
23.66894864489304
24.12381676593936
24.12381676577371
24.55736420628488
24.55736420610186
24.9692988638043
24.96929886360117
25.35948319674944
25.35948319652444
25.72794541637575
25.72794541612591
26.07489040727255
26.07489040699503
26.40071017621842
26.40071017591008
26.70599271928531
26.70599271894333
26.99152753584904
26.99152753546987
27.25830520562311
27.25830520520155
27.50750776101756
27.50750776054861
27.74048632722211
27.74048632670051
27.95872300365052
27.95872300306935
28.16377551602926
28.16377551538211
28.35720587569924
28.35720587497809
28.54049782800551
28.54049782720254
28.71497137628236
28.71497137538861
28.8817048218533
28.88170482085924
29.04147438147751
29.04147438037421
29.19471822780586
29.19471822658465
29.34152669737387
29.34152669602416
29.48479925638898
29.48479925489137
29.62430476986643
29.6243047682072
29.75651790361636
29.75651790178541
29.88071449739468
29.88071449538336
29.99604183598221
29.99604183378587
30.10155990326206
30.10155990087827
30.1962769201579
30.19627691758843
30.27917911178064
30.27917910903066
30.34925523691101
30.34925523398798
30.40551380790086
30.40551380481611
30.44700081166609
30.44700080843555
30.47282053039482
30.47282052703903
30.48213511911141
30.48213511565609
30.47417678501911
30.47417678149694
30.44825374422727
30.44825374067891
30.40375420339477
30.40375419986739
30.34014839108022
30.34014838763232
30.25698857137387
30.25698856807618
30.15390686864365
30.15390686558327
30.03061060070074
30.03061059798357
29.88759596780176
29.88759596536395
29.72491189118686
29.72491188873151
29.54190093540118
29.54190093301208
29.33866469281044
29.33866469061595
29.11537278301535
29.1153727811544
28.87225624213167
28.87225624075432
28.60959973402808
28.60959973329012
28.32773239635948
28.32773239643755
28.02725187639778
28.0272518773024
27.7086413635304
27.70864136486987
27.37216523467558
27.37216523656774
27.01832487766593
27.01832488025893
26.64763996984118
26.64763997327221
26.26064283559836
26.2606428399891
25.85787330134428
25.85787330680202
25.43987413901458
25.43987414563307
25.00718717004621
25.00718717790476
24.56035008166076
24.56035009083003
24.09989398738175
24.09989399792043
23.62634174395037
23.62634175590411
23.14020701783466
23.14020703124237
22.64199407599678
22.64199409088189
22.13219825667215
22.13219827304926
21.61130705468257
21.61130707255042
21.07980172749426
21.07980174683527
20.53815928392908
20.53815930469424
19.98685463852257
19.98685466057627
19.426362565594
19.42636258854441
18.85718020386066
18.85718022758951
18.27980571518451
18.27980574157036
17.6947330577058
17.69473308626941
17.10248705811462
17.10248708843901
16.50361463837572
16.50361466990287
15.89869252571601
15.89869255749023
15.28834130748723
15.28834133779054
14.67325579262728
14.67325581847125
14.05424274772775
14.05424276360131
13.4319504532411
13.43195045074286
12.80712885756592
12.80712882540623
12.1806200163448
12.18061994200351
11.55333455468677
11.55333442431413
10.92626390147142
10.92626370758985
10.30048543568969
10.30048518578423
9.67717960948757
9.677179335435435
9.057625655722241
9.05762536116525
8.442991306839815
8.442990961488469
7.834621634099415
7.834621183530642
7.234050370352151
7.234049721876248
6.643123863351864
6.643122840513442
6.063695374041004
6.063693664904399
5.497777160825073
5.497774241392042
4.94751142589701
4.947506411556261
4.415027786289622
4.415019354127063
3.902897388519903
3.902884064510293
3.414225326817613
3.41420695257398
2.954760747536759
2.954742451665296
2.531102484927628
2.531099722869356
2.148860497650344
2.148896266782175
1.817982940323823
1.818068451378742
1.546469580864166
1.546575074139572
1.330208774385095
1.33028785553074
1.159235336880697
1.159277864177557
1.033308750916903
1.033320354949533
0.948639769373893
0.948628840619106
0.8941526098542412
0.8941328931762842
0.8582595880983128
0.8582425668821256
0.8323009523637853
0.8322917293620813
0.8106724337693487
0.8106701467397768
0.7900181144402662
0.7900193812299741
0.7684136423201936
0.7684155953217005
0.7446316878038843
0.7446329608223383
0.717733237598609
0.7177336727179298
0.6868887972226759
0.6868887371282802
0.6512496093674505
0.6512493850011635
0.6098097912723197
0.6098095433871689
0.5612479063616727
0.56124762691872
0.5036377802460221
0.503637404992713
0.4336593169379952
0.4336587957448133
0.3468990053150333
0.3468988191608644
0.2945123872036762
0.2945066626044494
)


// ************************************************************************* //
