/*--------------------------------*- C++ -*----------------------------------*\
| =========                 |                                                 |
| \\      /  F ield         | OpenFOAM: The Open Source CFD Toolbox           |
|  \\    /   O peration     | Version:  2212                                  |
|   \\  /    A nd           | Website:  www.openfoam.com                      |
|    \\/     M anipulation  |                                                 |
\*---------------------------------------------------------------------------*/
FoamFile
{
    version     2.0;
    format      ascii;
    arch        "LSB;label=32;scalar=64";
    note        "face data";
    class       scalarField;
    location    "/work/hetmann/EXASIM/WP5/basicSetup_Perdigao/00_caseFiles/Leipzig_profile/postProcessing/surfaces/precursor_profile/400000";
    object      k;
}
// * * * * * * * * * * * * * * * * * * * * * * * * * * * * * * * * * * * * * //


320
(
1.744314337081863
1.744314337679663
1.830872815014425
1.830872815655801
1.776815720870268
1.776815721524615
1.745385141149817
1.7453851418405
1.725522238253874
1.725522238999554
1.71127892785055
1.711278928666678
1.700061704575622
1.700061705475287
1.690603189803173
1.69060319079739
1.682225249772852
1.682225250870685
1.674537820939442
1.674537822148113
1.667302952016191
1.667302953341145
1.660368209022377
1.660368210467359
1.65363178363447
1.653631785201586
1.647023155633059
1.647023157322838
1.64049185468376
1.640491856495184
1.63400065853302
1.634000660463557
1.627521329202012
1.627521331247657
1.621031856918354
1.621031859073623
1.614514629807852
1.614514632065788
1.607955188731711
1.607955191081779
1.601341356430767
1.601341358908747
1.594662634097518
1.594662636737473
1.587909763815838
1.587909766598055
1.581074388808861
1.581074391705344
1.574148820157828
1.574148823138599
1.567125855912763
1.567125858946798
1.559998643552368
1.55999864660749
1.552760574477743
1.552760577520305
1.545405202530207
1.545405205524777
1.537926180800409
1.537926183709553
1.530317212579984
1.53031721536414
1.522572013422569
1.522572016040008
1.514684282075827
1.514684284482759
1.506647678618714
1.506647680769496
1.498455808554589
1.498455810402032
1.490102211916826
1.490102213412686
1.481580356672049
1.481580357767681
1.472883635879863
1.472883636526979
1.464005368208303
1.464005368359929
1.454938801727299
1.454938801339767
1.445677117712924
1.445677116666294
1.436213453378272
1.436213451640465
1.426540890907237
1.426540888428983
1.41665249397637
1.416652490705264
1.406541327295964
1.40654132318162
1.396200493053154
1.3962004880507
1.385623186959509
1.385623181032853
1.374802784368502
1.374802777493496
1.363732968925655
1.363732961093105
1.352407914372175
1.352407905590626
1.340822522299577
1.34082251259802
1.328972703891266
1.328972693321532
1.316855674033944
1.31685566267256
1.304470207403764
1.304470195353338
1.291816796490846
1.291816783880647
1.278897658354019
1.278897645339521
1.265716562237005
1.265716548997941
1.252278488118276
1.252278474854708
1.238589164467818
1.238589151394308
1.224654559928615
1.224654547399751
1.210452014697189
1.210452000936836
1.195986496575494
1.195986479637035
1.181289824937104
1.181289805363535
1.166363815768509
1.166363794427363
1.151209289192861
1.151209266927006
1.135826155697023
1.135826133263355
1.120213569005879
1.120213547073004
1.104370116492082
1.104370095651612
1.088294023845513
1.08829400462389
1.071983904549593
1.071983887422967
1.055438512543939
1.05543849792691
1.038655054866253
1.038655043122891
1.021632250087386
1.021632241521483
1.004369308672097
1.004369303513132
0.9868660489583578
0.9868660473384447
0.9691229988064789
0.9691230007247871
0.9511414861418998
0.9511414914113159
0.9329237216472659
0.9329237298140238
0.9144728767151398
0.9144728869291456
0.8957931563887993
0.895793167275397
0.8768743796344757
0.8768743920724047
0.8577208343303325
0.8577208452471272
0.8383555229222124
0.8383555315737106
0.8187857665086894
0.818785772543646
0.7990200702313426
0.799020072846738
0.7790681467316882
0.779068144460507
0.7589409385909009
0.7589409291428912
0.7386506358960299
0.7386506142831293
0.7182033706624643
0.7182033494949474
0.6976124584663241
0.697612446791477
0.6769010186994429
0.6769010114872676
0.6560852763895119
0.656085268766067
0.63518263752736
0.6351826256651281
0.6142116759452567
0.6142116567630646
0.5931921076236324
0.5931920784278103
0.5721447620639062
0.5721447202931673
0.5510915512741353
0.5510914943354843
0.530055436319651
0.5300553614796174
0.5090603911951912
0.5090602954954926
0.4881313636735152
0.4881312438471951
0.4672942326988617
0.4672940850671886
0.4465757618110825
0.446575582142566
0.426003548010636
0.426003331323097
0.4056059654177559
0.405605705705229
0.3854121031009675
0.3854117929855488
0.3654516969726418
0.365451327447258
0.3457550612922669
0.3457546231652022
0.3263530537787405
0.326352524684783
0.3072752348280716
0.3072746753911704
0.2885529360726208
0.2885524061477064
0.2702196819984152
0.270219144919897
0.2523068236815146
0.2523062581689786
0.2348454140878406
0.2348448146147155
0.2178661227966741
0.2178654927267443
0.2013989602814022
0.2013983096106426
0.1854729041776618
0.1854722494711081
0.1701163613827171
0.1701157276195798
0.1553733373537206
0.1553727517369788
0.1412521816279361
0.1412517292128531
0.1277789771456317
0.1277787269776532
0.1149799028516338
0.1149798777063569
0.1028755426055744
0.1028757612514267
0.09148359172319277
0.09148404546658234
0.08081874130262869
0.0808193799989399
0.07089239254460265
0.07089313429558811
0.06171126547322381
0.06171206101823384
0.05327702416543133
0.05327784949577655
0.04558512715169345
0.04558596757971421
0.0386224602313765
0.03862329932769624
0.03242816539641899
0.03242895624496044
0.02693324332761865
0.02693394818727766
0.0221129295616763
0.02211350775895354
0.01793322359965427
0.01793363828700885
0.01434871866239694
0.01434895493505138
0.01130243303093236
0.01130252373708494
0.008724044737539474
0.008724082991019911
0.006565032342448745
0.006565385207437401
0.004740246733042708
0.004741042914674067
0.003222190543003145
0.003223306849079803
0.002051089460333606
0.002052158482607301
0.001326694394855435
0.001327351280508569
0.001022185131599899
0.001022421498219198
0.0009760273299702555
0.0009759893469650106
0.001031831590834807
0.001031692521644721
0.001092273503828271
0.001092129000185313
0.001116607692322448
0.001116506276296443
0.001100829737893036
0.00110078276145874
0.001056635194627827
0.001056629705233354
0.0009985903242733965
0.000998604325239552
0.0009364402395667202
0.0009364558694773507
0.0008736505267779997
0.0008736596012969321
0.0008093171946564773
0.0008093197927752032
0.0007408129445569699
0.0007408121076944577
0.0006661237664213731
0.0006661220157944094
0.0005845060204780971
0.000584504359388993
0.0004961801372929942
0.0004961785484860445
0.0004019311612105494
0.0004019293581832344
0.0003027572992203169
0.0003027551550562935
0.0001976168729318672
0.0001976160135388011
9.539536359508762e-05
9.541887043551764e-05
)


// ************************************************************************* //
