/*--------------------------------*- C++ -*----------------------------------*\
| =========                 |                                                 |
| \\      /  F ield         | OpenFOAM: The Open Source CFD Toolbox           |
|  \\    /   O peration     | Version:  2212                                  |
|   \\  /    A nd           | Website:  www.openfoam.com                      |
|    \\/     M anipulation  |                                                 |
\*---------------------------------------------------------------------------*/
FoamFile
{
    version     2.0;
    format      ascii;
    arch        "LSB;label=32;scalar=64";
    note        "face data";
    class       symmTensorField;
    location    "/work/hetmann/EXASIM/WP5/basicSetup_Perdigao/00_caseFiles/Leipzig_profile/postProcessing/surfaces/precursor_profile/400000";
    object      turbulenceProperties:R;
}
// * * * * * * * * * * * * * * * * * * * * * * * * * * * * * * * * * * * * * //


320
(
(1.162876224721242 -1.797008630526111e-20 -0.4862032916865406 1.162876224721242 -0.2366494299533746 1.162876224721243)
(1.162876225119775 3.709052589886814e-21 -0.486203291686243 1.162876225119775 -0.236649429953255 1.162876225119775)
(1.220581876676283 -2.4566230043606e-19 -0.5114007556072486 1.220581876676283 -0.2461812386105235 1.220581876676283)
(1.220581877103867 3.18186558501317e-19 -0.5114007556069058 1.220581877103867 -0.2461812386104029 1.220581877103867)
(1.184543813913511 -2.06043180971842e-19 -0.4783976879304048 1.184543813913511 -0.2279880232480136 1.184543813913512)
(1.184543814349743 3.219799132219781e-19 -0.4783976879300592 1.184543814349743 -0.2279880232478915 1.184543814349743)
(1.163590094099878 2.343318231823173e-20 -0.4700531160871752 1.163590094099878 -0.2218994962081609 1.163590094099879)
(1.163590094560333 -2.343318231890061e-20 -0.4700531160868469 1.163590094560333 -0.2218994962080668 1.163590094560333)
(1.150348158835916 -3.022395854965086e-19 -0.4664672766174444 1.150348158835916 -0.2181769749137475 1.150348158835917)
(1.150348159333035 3.022395854963285e-19 -0.4664672766171583 1.150348159333035 -0.2181769749136363 1.150348159333036)
(1.140852618567033 -1.289925682326377e-19 -0.4642563161175622 1.140852618567033 -0.2151570272255766 1.140852618567034)
(1.140852619111119 -8.882816318698505e-19 -0.4642563161173117 1.140852619111119 -0.2151570272254024 1.140852619111118)
(1.133374469717081 2.842540167011063e-19 -0.4626969929005503 1.133374469717081 -0.2124729978966481 1.133374469717082)
(1.133374470316859 -2.842540167006868e-19 -0.4626969929001101 1.133374470316859 -0.212472997896487 1.133374470316858)
(1.127068793202115 -2.233795270262967e-18 -0.4614740831310239 1.127068793202115 -0.2099624468262556 1.127068793202116)
(1.127068793864926 2.233795270258878e-18 -0.4614740831304628 1.127068793864926 -0.2099624468260538 1.127068793864926)
(1.121483499848567 -2.200930603173743e-18 -0.460434088729786 1.121483499848567 -0.2075444475098507 1.121483499848569)
(1.121483500580456 2.20093060316969e-18 -0.4604340887294205 1.121483500580456 -0.2075444475096864 1.121483500580456)
(1.116358547292961 -1.819585739993609e-18 -0.4594954151724129 1.116358547292961 -0.2051746848662874 1.116358547292962)
(1.116358548098742 9.120072560273805e-19 -0.4594954151719914 1.116358548098742 -0.205174684866124 1.116358548098742)
(1.111535301344127 -3.517972350403387e-18 -0.458611498416766 1.111535301344127 -0.2028269224064689 1.111535301344128)
(1.11153530222743 1.495180345697775e-18 -0.4586114984162304 1.11153530222743 -0.2028269224061874 1.111535302227429)
(1.106912139348251 5.263087532366447e-19 -0.4577541432426699 1.106912139348251 -0.2004845662150451 1.106912139348252)
(1.106912140311572 -1.642914497562064e-18 -0.457754143242121 1.106912140311572 -0.2004845662148224 1.106912140311572)
(1.102421189089646 4.50579419053601e-19 -0.4569053806097176 1.102421189089646 -0.198136503861193 1.102421189089647)
(1.102421190134391 1.995597865462368e-18 -0.4569053806091398 1.102421190134391 -0.1981365038609438 1.10242119013439)
(1.098015437088702 -4.601362079758006e-18 -0.4560532220012518 1.098015437088702 -0.1957749103636746 1.098015437088712)
(1.098015438215223 5.762909107108491e-18 -0.4560532220007069 1.098015438215223 -0.1957749103632754 1.098015438215229)
(1.093661236455823 -2.752752437852765e-20 -0.4551893223083208 1.093661236455823 -0.1933940245442611 1.093661236455873)
(1.093661237663443 1.46689630319316e-18 -0.4551893223073602 1.093661237663443 -0.1933940245440057 1.093661237663481)
(1.089333772355348 8.82405629746454e-18 -0.4543076327559794 1.089333772355348 -0.1909894331803205 1.089333772355344)
(1.08933377364237 -8.82405629746464e-18 -0.4543076327550659 1.08933377364237 -0.1909894331800722 1.089333773642374)
(1.085014219468072 3.068383464089607e-18 -0.4534035932227661 1.085014219468072 -0.1885576346656084 1.085014219467879)
(1.08501422083184 -4.72753361550725e-18 -0.4534035932219106 1.08501422083184 -0.1885576346651285 1.085014220831634)
(1.080687904612606 -4.175587922232851e-18 -0.4524736311106352 1.080687904612606 -0.1860957634246415 1.080687904611495)
(1.080687906049455 4.175587922233569e-18 -0.4524736311097265 1.080687906049455 -0.1860957634241595 1.080687906048336)
(1.076343086538496 4.622584115104541e-18 -0.4515148409649313 1.076343086538496 -0.183601410404261 1.076343086538712)
(1.076343088043831 -4.622584115099924e-18 -0.4515148409638843 1.076343088043831 -0.1836014104037463 1.076343088043916)
(1.071970125814122 1.132516255570049e-17 -0.4505247740901153 1.071970125814122 -0.1810725029765943 1.071970125835176)
(1.071970127380773 -3.959990146446933e-18 -0.4505247740888543 1.071970127380773 -0.1810725029760101 1.071970127402013)
(1.067560904279804 -1.266080342788154e-17 -0.4495012971421652 1.067560904279804 -0.1785072227284841 1.067560904301927)
(1.067560905931804 1.824697176457604e-17 -0.4495012971413622 1.067560905931804 -0.1785072227279669 1.067560905953888)
(1.063108422731359 -1.113371385175769e-17 -0.4484424950025142 1.063108422731359 -0.1759039480663436 1.063108422732318)
(1.063108424491406 1.113371385176176e-17 -0.4484424950010835 1.063108424491406 -0.1759039480659377 1.063108424492134)
(1.058606509211001 1.360025826972491e-17 -0.4473466027040549 1.058606509211001 -0.1732612135182743 1.058606509209675)
(1.058606511065814 -1.360025826972837e-17 -0.4473466027024711 1.058606511065814 -0.1732612135177467 1.058606511064481)
(1.05404959253941 -1.578285520171129e-17 -0.4462119569351244 1.05404959253941 -0.1705776805179455 1.054049592538902)
(1.054049594470388 7.779966743332767e-18 -0.4462119569333037 1.054049594470388 -0.170577680517443 1.054049594469914)
(1.049432546771885 -2.698603211244291e-17 -0.4450369608181546 1.049432546771885 -0.1678521162659636 1.049432546771886)
(1.049432548759062 6.611086292122471e-18 -0.4450369608168501 1.049432548759062 -0.1678521162651623 1.049432548759073)
(1.044750570608486 -4.509492227780559e-18 -0.4438200579403576 1.044750570608486 -0.1650833783963042 1.044750570608553)
(1.04475057263118 4.509492227756371e-18 -0.4438200579387465 1.04475057263118 -0.1650833783955059 1.044750572631234)
(1.039999095701573 -4.534703953436302e-18 -0.442559712929397 1.039999095701573 -0.1622704038980861 1.039999095701587)
(1.039999097738325 4.534703953438665e-18 -0.4425597129269445 1.039999097738325 -0.1622704038974573 1.039999097738328)
(1.035173716318495 6.324000623695705e-19 -0.441254396679273 1.035173716318495 -0.1594122012216221 1.035173716318496)
(1.035173718346871 -6.324000623929609e-19 -0.441254396677491 1.035173718346871 -0.1594122012207243 1.035173718346867)
(1.030270135020137 -1.343528313142912e-17 -0.4399025749602544 1.030270135020137 -0.1565078448129332 1.03027013502014)
(1.030270137016518 3.511176955234017e-17 -0.4399025749566579 1.030270137016518 -0.1565078448120085 1.030270137016517)
(1.025284120533605 1.43204070935659e-17 -0.4385026994860471 1.025284120533605 -0.1535564715500112 1.025284120533609)
(1.025284122473036 4.141557171932577e-18 -0.4385026994818507 1.025284122473036 -0.153556471549443 1.025284122473034)
(1.020211475053321 4.039497575089737e-19 -0.4370532008433844 1.020211475053321 -0.1505572786794089 1.020211475053326)
(1.020211476909427 -4.039497575088176e-19 -0.4370532008397141 1.020211476909427 -0.1505572786783468 1.020211476909426)
(1.015048008948378 2.807262563486582e-17 -0.4355524827666313 1.015048008948378 -0.1475095229720262 1.015048008948382)
(1.015048010693339 -3.838319397674562e-17 -0.4355524827630885 1.015048010693339 -0.147509522970759 1.015048010693337)
(1.009789521383884 1.204551232029282e-17 -0.4339989174657616 1.009789521383884 -0.1444125209032175 1.009789521383887)
(1.009789522988506 -5.300429748381431e-18 -0.4339989174616521 1.009789522988506 -0.1444125209026932 1.009789522988503)
(1.004431785745806 -6.95974686484446e-18 -0.4323908417461227 1.004431785745806 -0.1412656496911069 1.004431785745816)
(1.004431787179662 -1.219762456256961e-17 -0.4323908417406202 1.004431787179662 -0.1412656496902524 1.004431787179668)
(0.9989705390363764 1.495723430561406e-17 -0.4307265537521954 0.9989705390363763 -0.1380683490723687 0.9989705390364252)
(0.9989705402680049 -1.495723430554311e-17 -0.4307265537458335 0.9989705402680049 -0.138068349071212 0.998970540268054)
(0.9934014746112143 -4.392713925692664e-17 -0.4290043101913842 0.9934014746112143 -0.1348201237336458 0.993401474611223)
(0.9934014756084566 2.205895292720597e-17 -0.4290043101852391 0.9934014756084566 -0.1348201237328163 0.9934014756084597)
(0.9877202377814907 -1.44163505301951e-18 -0.4272223239349029 0.9877202377814907 -0.1315205463331031 0.9877202377811166)
(0.9877202385119284 1.09172212125875e-17 -0.4272223239269928 0.9877202385119284 -0.1315205463321871 0.9877202385115063)
(0.9819224239202844 -3.976942962139402e-17 -0.4253787619332838 0.9819224239202844 -0.1281692610470287 0.9819224239191573)
(0.9819224243516949 2.45256547212189e-17 -0.4253787619246381 0.9819224243516949 -0.1281692610461327 0.9819224243505682)
(0.9760035788051922 -7.56128160086893e-19 -0.4234717434140923 0.9760035788051922 -0.1247659875993335 0.9760035788062205)
(0.9760035789062769 7.561281600811332e-19 -0.4234717434051926 0.976003578906277 -0.1247659875989269 0.976003578907304)
(0.969959201144484 2.058695447959441e-17 -0.4214993380063768 0.9699592011444841 -0.1213105257035837 0.9699592011656296)
(0.9699592008861884 1.664995752324518e-17 -0.4214993379966449 0.9699592008861884 -0.1213105257029968 0.9699592009071567)
(0.9637847451348875 1.17456234462177e-17 -0.4194595656093947 0.9637847451348875 -0.1178027603363891 0.9637847451560719)
(0.9637847444371634 4.394754043743557e-18 -0.4194595655997173 0.9637847444371634 -0.1178027603348745 0.963784744458261)
(0.9574756355851104 -8.288757911902683e-19 -0.4173503941198541 0.9574756355851104 -0.1142426666847745 0.9574756355863228)
(0.9574756344263946 9.034436981141244e-18 -0.4173503941093691 0.9574756344263946 -0.1142426666838468 0.9574756344281397)
(0.9510272606052328 -8.817470213186848e-18 -0.4151697389524068 0.9510272606052327 -0.1106303159827787 0.9510272606040077)
(0.9510272589530656 -7.850101611902974e-18 -0.4151697389410559 0.9510272589530655 -0.1106303159821704 0.9510272589518346)
(0.9444349959844709 4.496770528103836e-18 -0.412915465436741 0.9444349959844709 -0.1069658822731404 0.9444349959837972)
(0.9444349938036564 3.958101655481721e-18 -0.4129154654241571 0.9444349938036564 -0.1069658822724905 0.9444349938032151)
(0.9376942181973018 -2.473822976641585e-18 -0.4105853898407782 0.9376942181973018 -0.1032496489236784 0.9376942181973243)
(0.9376942154544119 1.1042710309993e-17 -0.4105853898261053 0.9376942154544119 -0.1032496489233896 0.9376942154544171)
(0.9308003287020816 -3.856978052601031e-17 -0.4081772841182082 0.9308003287020816 -0.09948201613378176 0.9308003287021456)
(0.9308003253671162 3.865939782535979e-18 -0.4081772841031421 0.9308003253671162 -0.09948201613376648 0.9308003253671675)
(0.9237487913063336 -3.805656310081885e-17 -0.4056888829849125 0.9237487913063336 -0.09566350875475195 0.9237487913063508)
(0.9237487873552337 1.172771118600659e-17 -0.405688882969093 0.9237487873552337 -0.09566350875500436 0.9237487873552377)
(0.916535189578999 1.403232352196825e-17 -0.4031178935734073 0.916535189578999 -0.09179478430116125 0.9165351895790067)
(0.916535184995666 -1.403232352169273e-17 -0.4031178935549759 0.916535184995666 -0.09179478430144869 0.9165351849956598)
(0.9091553126171001 9.81853148042013e-18 -0.4004620069552808 0.9091553126171001 -0.08787664070366458 0.9091553126171096)
(0.9091553073954053 -1.177702671601011e-17 -0.4004620069362163 0.9091553073954053 -0.0878766407048269 0.9091553073954003)
(0.9016052762481135 -2.065645652443655e-18 -0.3977189098370278 0.9016052762481135 -0.08391002320630907 0.9016052762481238)
(0.9016052703937525 -1.686051822466982e-17 -0.397718909817513 0.9016052703937525 -0.08391002320826135 0.9016052703937478)
(0.8938816815330475 -8.136014232489385e-18 -0.3948862937691414 0.8938816815330475 -0.07989602975151372 0.893881681533058)
(0.8938816750653484 8.136014232299798e-18 -0.394886293748103 0.8938816750653484 -0.079896029753824 0.8938816750653433)
(0.8859818025941741 -1.574365340048699e-18 -0.391961858565417 0.8859818025941741 -0.07583591429904366 0.8859818025941844)
(0.8859817955476896 1.574365340009514e-18 -0.3919618585435634 0.8859817955476897 -0.07583591430177106 0.8859817955476835)
(0.8779037826892927 5.139587167170951e-17 -0.3889433067136612 0.8779037826892927 -0.07173108786877638 0.8779037826893016)
(0.8779037751150427 -5.419011413673602e-17 -0.3889433066903528 0.8779037751150427 -0.07173108787236948 0.8779037751150344)
(0.8696468049358365 3.74886563252665e-17 -0.3858283270869673 0.8696468049358365 -0.06758311771876373 0.8696468049358539)
(0.8696467969022252 -9.531909611168071e-18 -0.3858283270625844 0.8696467969022252 -0.06758311772343892 0.8696467969022247)
(0.8612111976605448 -7.421044504821348e-18 -0.3826145695001638 0.8612111976605448 -0.06339372586973083 0.8612111976606034)
(0.8612111892537546 7.42104450444543e-18 -0.3826145694758136 0.8612111892537546 -0.06339372587487296 0.8612111892537856)
(0.8525984389026799 -1.377870313536021e-17 -0.3792996158639771 0.8525984389026799 -0.05916478884650377 0.8525984389026779)
(0.8525984302263467 1.377870313502086e-17 -0.379299615838126 0.8525984302263467 -0.05916478885220438 0.8525984302263481)
(0.8438110414914539 8.004496012357309e-18 -0.375880956864272 0.8438110414914539 -0.05489834058454054 0.8438110414911014)
(0.8438110326654997 1.486783557538394e-18 -0.3758809568377666 0.8438110326654996 -0.05489834059150367 0.8438110326648823)
(0.8348523254125324 8.635864959514197e-18 -0.3723559828956661 0.8348523254125324 -0.05059657966998647 0.834852325411487)
(0.834852316570161 9.079190439849053e-19 -0.3723559828687671 0.834852316570161 -0.05059657967762173 0.8348523165690948)
(0.8257261096445807 2.889216834206525e-17 -0.3687219936071863 0.8257261096445807 -0.04626188073503779 0.8257261096464744)
(0.8257261009290359 -1.929802442315046e-17 -0.3687219935781991 0.825726100929036 -0.04626188074405641 0.8257261009305451)
(0.8164363732792062 -1.673353901093503e-18 -0.3649666790295156 0.8164363732792062 -0.04189576468216907 0.8164363732988178)
(0.8164363649266229 3.150809453352343e-17 -0.3649666789979679 0.8164363649266229 -0.04189576469263447 0.816436364946256)
(0.8069680097915658 2.334049196400633e-17 -0.3611059856222333 0.8069680097915657 -0.03750326592029947 0.8069680098112473)
(0.8069680006180215 -3.961547781667298e-18 -0.3611059855873507 0.8069680006180215 -0.03750326593158779 0.8069680006376279)
(0.7973243310498466 1.78250168717458e-20 -0.3571368928418006 0.7973243310498466 -0.03308694030038567 0.7973243310512947)
(0.7973243197574 -1.782501610829484e-20 -0.3571368928033107 0.7973243197574 -0.03308694031271291 0.797324319759271)
(0.7875265499584361 -3.210782784012001e-18 -0.3530382616711303 0.7875265499584361 -0.02864818277338863 0.7875265499573356)
(0.7875265369093982 3.210782783226862e-18 -0.353038261631448 0.7875265369093982 -0.02864818278682818 0.7875265369082735)
(0.7775758771792025 4.883481267631656e-17 -0.3488167211985387 0.7775758771792025 -0.02419145263343954 0.7775758771786121)
(0.7775758629516951 -4.888299586789389e-17 -0.3488167211596866 0.7775758629516951 -0.02419145264808943 0.7775758629513355)
(0.7674728594618956 1.372725898216273e-17 -0.3444696442692261 0.7674728594618956 -0.01972043689242274 0.7674728594619309)
(0.7674728446179965 -2.952812871512697e-17 -0.3444696442307689 0.7674728446179965 -0.01972043690771869 0.7674728446180179)
(0.7572174371313267 3.106905067763537e-17 -0.339994491448855 0.7572174371313267 -0.01523907988522155 0.7572174371313934)
(0.7572174221755578 -2.117689499336238e-17 -0.3399944914113059 0.7572174221755579 -0.01523907990186675 0.7572174221755944)
(0.7468090460039105 5.5276302986479e-17 -0.3353888206514951 0.7468090460039105 -0.01075159274907758 0.7468090460039358)
(0.7468090313820046 -5.527630297940865e-17 -0.3353888206151492 0.7468090313820046 -0.01075159276669389 0.7468090313819988)
(0.7362467443280484 -1.072040218422785e-17 -0.3306502965359396 0.7362467443280483 -0.006262463383911747 0.7362467443280674)
(0.7362467304344124 4.057198011841999e-17 -0.3306502965022298 0.7362467304344124 -0.006262463401853458 0.736246730434399)
(0.7255293492303342 -6.763050537497823e-18 -0.3257767083509654 0.7255293492303341 -3.835956303411621e-10 0.7255293492303563)
(0.7255293364159301 -2.097338057692007e-17 -0.3257767083195794 0.7255293364159301 -2.012342155410236e-10 0.7255293364159188)
(0.7146559363663875 2.52974483082246e-17 -0.3207659630373071 0.7146559363663871 0.0009224714492314006 0.7146559363664113)
(0.7146559249486479 -3.627132453034469e-17 -0.3207659630071517 0.7146559249486483 0.000922471411823137 0.7146559249486369)
(0.7036256750292844 3.478251550352606e-18 -0.3156160962641482 0.7036256750292844 0.007165523658778778 0.7036256750293092)
(0.7036256652846105 -1.294204805552369e-17 -0.3156160962378312 0.7036256652846105 0.007165523639282651 0.703625665284599)
(0.6924367032441605 6.75626025140628e-17 -0.310325353175215 0.6924367032441607 0.01161042989550296 0.6924367032441854)
(0.6924366954152648 -4.134195366951406e-17 -0.310325353152807 0.6924366954152649 0.01161042987605462 0.6924366954152522)
(0.681088166724916 -3.106904810362117e-17 -0.3048921195081069 0.681088166724916 0.01603000456680053 0.6810881667249395)
(0.6810881610143271 1.103460289483001e-17 -0.3048921194887441 0.6810881610143271 0.01603000454857506 0.6810881610143116)
(0.6695795391147215 -1.234434238139207e-17 -0.2993149941860982 0.6695795391147215 0.02041786615419017 0.669579539114751)
(0.6695795356754246 1.234434238046278e-17 -0.2993149941712502 0.6695795356754245 0.02041786613721755 0.669579535675414)
(0.6579106993055491 1.794451808205014e-18 -0.2935928024195275 0.657910699305549 0.02476727818371396 0.6579106993056174)
(0.6579106982256189 -1.794451807493999e-18 -0.2935928024100622 0.6579106982256189 0.02476727816832797 0.6579106982256517)
(0.6460819992043006 -3.182526601089914e-17 -0.2877246224763278 0.6460819992043006 0.02907113909794271 0.6460819992043563)
(0.6460820004831871 1.184233681954421e-17 -0.2877246224725334 0.6460820004831871 0.02907113908577379 0.6460820004831997)
(0.6340943240946826 2.620528757532201e-17 -0.2817098150659832 0.6340943240946828 0.03332197308996605 0.6340943240944339)
(0.6340943276077249 -6.264163428806067e-18 -0.2817098150680818 0.6340943276077249 0.03332197308148972 0.6340943276071818)
(0.6219491477652044 4.643019174815913e-18 -0.275548055429307 0.6219491477652044 0.03751192217816711 0.621949147764123)
(0.6219491532097255 -1.153797611068815e-17 -0.2755480554383267 0.6219491532097254 0.03751192217365271 0.6219491532085966)
(0.6096485844758706 1.178700963009045e-19 -0.2692393682754885 0.6096485844758706 0.04163273969897305 0.6096485844785383)
(0.6096485912854982 -1.178700950255783e-19 -0.269239368289807 0.6096485912854983 0.04163273969514186 0.6096485912872946)
(0.5971954375860351 -5.804605108247052e-17 -0.2627826216213334 0.5971954375860351 0.04567550250605507 0.5971954376055283)
(0.5971954448437123 5.804605107632787e-17 -0.2627826216374879 0.5971954448437123 0.04567550249755618 0.5971954448633694)
(0.5845829197491444 -9.411846193818507e-18 -0.2561813847385632 0.5845829197491446 0.04963160762909433 0.5845829197706622)
(0.5845829280411518 9.41184619340805e-18 -0.2561813847555936 0.5845829280411516 0.04963160761421756 0.5845829280625059)
(0.5718138895529508 -5.273180632257717e-17 -0.2494373524552353 0.5718138895529508 0.05349180964618459 0.5718138895547635)
(0.5718138968305246 1.732806296761681e-17 -0.2494373524715059 0.5718138968305246 0.05349180962658054 0.5718138968332053)
(0.5589036819485154 6.569780787879067e-18 -0.2425492022347062 0.5589036819485155 0.05724565694101288 0.5589036819473938)
(0.5589036877161968 -6.569780787115708e-18 -0.2425492022527049 0.5589036877161967 0.05724565692247902 0.5589036877150275)
(0.5458571776726555 9.060808913793859e-18 -0.2355207992061595 0.5458571776726555 0.06088321885099207 0.5458571776720675)
(0.5458571816958993 -9.060808911806085e-18 -0.2355207992291584 0.5458571816958993 0.0608832188405294 0.5458571816954935)
(0.5326800468209757 5.778023109283176e-18 -0.228355119714825 0.5326800468209756 0.06439391465427374 0.5326800468207336)
(0.5326800485646397 -5.778023109420025e-18 -0.2283551197432565 0.5326800485646397 0.0643939146551306 0.5326800485641965)
(0.5193787644880836 -5.888544406009177e-18 -0.2210558066464632 0.5193787644880836 0.06776680533107424 0.5193787644872091)
(0.5193787629739828 2.154791424408024e-17 -0.2210558066807504 0.5193787629739826 0.06776680534438351 0.5193787629730486)
(0.5059606257262544 -2.746931669592611e-17 -0.2136272265733519 0.5059606257262546 0.07099061452880691 0.5059606257292928)
(0.5059606194278612 5.140135691198983e-17 -0.2136272266156747 0.5059606194278614 0.0709906145484806 0.5059606194300595)
(0.4924337572583977 -1.402986990053927e-17 -0.2060741111090855 0.4924337572583977 0.0740535999340754 0.4924337572752644)
(0.4924337428497422 -5.823810195750686e-18 -0.2060741111623575 0.4924337428497421 0.07405359994976096 0.4924337428667741)
(0.478802247102379 2.695250611028274e-17 -0.1984031471331037 0.478802247102379 0.07694412961416361 0.4788022471201707)
(0.4788022329907392 -1.299094152835323e-17 -0.1984031471988529 0.4788022329907392 0.07694412962293801 0.4788022330084163)
(0.4650749723100904 1.600189234853343e-17 -0.1906213554295211 0.4650749723100904 0.07965019025483201 0.4650749723124675)
(0.4650749645266181 2.952700968270896e-17 -0.1906213555038516 0.4650749645266181 0.07965019025726344 0.4650749645297177)
(0.4512673457999578 2.077932289361493e-17 -0.1827357855834184 0.4512673457999579 0.08215917057739078 0.4512673457989699)
(0.4512673409918569 3.272675161586941e-17 -0.1827357856630957 0.4512673409918571 0.08215917058148514 0.451267340990821)
(0.437390184259824 -2.81323988964933e-17 -0.1747557178781738 0.437390184259824 0.0844587970976724 0.4373901842593756)
(0.4373901791774771 2.813239889949766e-17 -0.1747557179613302 0.4373901791774771 0.0844587971125514 0.4373901791771796)
(0.4234550916848858 -9.213594871016806e-18 -0.1666911489597024 0.4234550916848857 0.08653659214762965 0.4234550916849484)
(0.423455083776746 1.797070261958335e-17 -0.1666911490442759 0.423455083776746 0.08653659217471002 0.4234550837767642)
(0.4094744506301493 2.854384178407979e-17 -0.1585532415349357 0.4094744506301492 0.08838009692558443 0.4094744506302148)
(0.4094744378420369 -1.991391136523152e-17 -0.1585532416187895 0.4094744378420369 0.08838009696401194 0.4094744378420554)
(0.3954614050824108 2.1598247677686e-17 -0.1503543879787975 0.3954614050824108 0.08997696239769754 0.3954614050824429)
(0.3954613856185444 -5.558852718724598e-17 -0.1503543880632209 0.3954613856185444 0.08997696244672221 0.3954613856185318)
(0.3814298413759277 -5.982866707953816e-17 -0.1421082710330165 0.3814298413759277 0.09131505297741351 0.381429841375957)
(0.3814298135287824 5.982866709569888e-17 -0.1421082711183757 0.3814298135287824 0.09131505303629439 0.3814298135287697)
(0.3673943675160798 -1.648202976563423e-17 -0.1338299203475303 0.3673943675160798 0.09238256378086346 0.3673943675161111)
(0.3673943295569921 -1.63900193531031e-17 -0.133829920432329 0.3673943295569921 0.09238256384922353 0.3673943295569843)
(0.353370290879757 -7.523997303743759e-17 -0.12553576324502 0.353370290879757 0.0931681523069839 0.3533702908797882)
(0.3533702409864131 7.523997306954812e-17 -0.1255357633281325 0.3533702409864132 0.09316815238434656 0.3533702409864085)
(0.3393735941301175 1.288123328768787e-17 -0.1172436678099778 0.3393735941301175 0.09366108531380918 0.3393735941301476)
(0.339373530330329 -2.250328676784597e-17 -0.1172436678914759 0.3393735303303291 0.09366108539982135 0.3393735303303271)
(0.3254209091156673 9.271254044162326e-18 -0.1089729761298941 0.3254209091156673 0.0938514015551383 0.3254209091156955)
(0.3254208292314632 -9.271254057538575e-18 -0.108972976208983 0.3254208292314631 0.09385140164956042 0.3254208292314638)
(0.3115294884658996 -1.665462205600547e-17 -0.1007445251989094 0.3115294884658996 0.0937300908853855 0.3115294884659242)
(0.3115293900447917 -2.136774812522678e-17 -0.100744525273451 0.3115293900447917 0.09373009098772045 0.3115293900447937)
(0.2977171745407148 4.829491920699572e-18 -0.09258065266572255 0.2977171745407148 0.0932892900323085 0.2977171745407352)
(0.2977170547617094 -4.829491919136525e-18 -0.09258065273466012 0.2977170547617094 0.09328929014217784 0.2977170547617132)
(0.2840023653404122 -3.180229253177762e-17 -0.08450518425032981 0.2840023653404122 0.09252249506827469 0.2840023653404475)
(0.2840022208820562 3.584198423623829e-17 -0.08450518431222703 0.2840022208820561 0.09252249518520973 0.2840022208820815)
(0.2704039769451497 1.166062847460247e-17 -0.0765433992760375 0.2704039769451497 0.09142479026125311 0.2704039769452125)
(0.2704038038034661 -1.166062848696389e-17 -0.07654339932894108 0.2704038038034661 0.09142479038443205 0.2704038038035258)
(0.2569414020673656 3.676353123572266e-17 -0.06872197038322991 0.2569414020673655 0.08999309255374519 0.2569414020672038)
(0.2569411953237767 -7.256293874722289e-17 -0.06872197042393045 0.2569411953237766 0.08999309268139399 0.2569411953235443)
(0.2436344646487311 -3.490100801776314e-17 -0.06106887308220373 0.2436344646487311 0.08822641036909798 0.2436344646478214)
(0.2436342182984727 3.827569478950626e-17 -0.06106887310625377 0.2436342182984727 0.08822641049988936 0.2436342182975706)
(0.230503374194017 -2.106097335913632e-17 -0.05361326072826614 0.2305033741940168 0.08612611509326382 0.2305033741964999)
(0.2305030821095264 -1.927727997016965e-18 -0.05361326074044423 0.2305030821095265 0.08612611522587124 0.2305030821113516)
(0.2175687025148091 2.122825661086044e-17 -0.04638528737449141 0.2175687025148091 0.08369619871619888 0.2175687025278628)
(0.2175683497854485 -3.713981354324335e-17 -0.0463852873950316 0.2175683497854485 0.08369619885449267 0.217568349798669)
(0.2048501565479228 -3.031637413285691e-17 -0.03941593735265278 0.2048501565479227 0.08094362904119642 0.2048501565602978)
(0.2048497835899614 -9.718374287160032e-18 -0.03941593739629581 0.2048497835899614 0.08094362918994943 0.2048497836024179)
(0.1923686240479214 -1.193179013255124e-17 -0.03273671977334472 0.1923686240479214 0.0778785717082621 0.1923686240493987)
(0.1923682707646082 1.008667798233311e-17 -0.03273671984662713 0.1923682707646082 0.0778785718703614 0.1923682707661964)
(0.1801464546658985 3.615755427368271e-17 -0.02637935036261339 0.1801464546658986 0.07451464596282531 0.1801464546650333)
(0.180146096613518 -3.761129172729288e-17 -0.02637935045363497 0.180146096613518 0.07451464612877851 0.180146096612758)
(0.1682045491210498 1.461046355498679e-17 -0.02037541255786109 0.1682045491210497 0.07086928227296899 0.1682045491209296)
(0.1682041721126586 -1.320538302967134e-17 -0.02037541266178543 0.1682041721126586 0.07086928243905877 0.1682041721126397)
(0.1565636093918971 -9.784900540929174e-18 -0.01475588024551413 0.1565636093918972 0.06696390121529486 0.1565636093918868)
(0.1565632097431121 1.114077984135189e-17 -0.01475588038238172 0.1565632097431121 0.06696390138242797 0.1565632097432067)
(0.1452440818644601 2.678172077212188e-18 -0.009550608920004346 0.1452440818644601 0.06282413366863472 0.145244081864428)
(0.1452436618178006 -3.984353079748532e-18 -0.009550609119168709 0.1452436618178006 0.06282413383733207 0.1452436618178873)
(0.1342659735209705 8.191135054453943e-18 -0.004787746083989379 0.1342659735209705 0.0584799720641568 0.1342659735208633)
(0.1342655397404233 -8.191135074268155e-18 -0.00478774638592255 0.1342655397404233 0.05847997223370361 0.1342655397404387)
(0.1236486027853242 1.886405430744327e-17 -1.972512618480303e-09 0.1236486027853242 0.05396587549896643 0.1236486027846752)
(0.1236481663141666 1.096983310424242e-17 -2.395128997278823e-10 0.1236481663141667 0.05396587566754295 0.123648166313883)
(0.1134109075882146 5.391067628163226e-17 0.002880606778588875 0.1134109075882147 0.04932105253320519 0.1134109075890048)
(0.1134104850792355 -5.60906603890357e-17 0.002880605708361797 0.1134104850792355 0.04932105269822489 0.1134104850806885)
(0.1035822249000817 -6.764960282399957e-17 0.006605147097928568 0.1035822249000816 0.04458859320223711 0.1035822249072778)
(0.1035818344888476 3.233689587920071e-17 0.006605146130386041 0.1035818344888476 0.04458859336449662 0.1035818344962623)
(0.0941681210829521 -1.655935598400605e-17 0.00937611388140229 0.09416812108295208 0.03981598489366341 0.09416812108996805)
(0.09416781947281733 1.655935600144297e-17 0.009376112573581896 0.09416781947281735 0.03981598505737206 0.09416781948007141)
(0.08518598476329736 -3.730680793440338e-18 0.01161555680083078 0.08518598476329736 0.03505446464826432 0.08518598476466863)
(0.08518581798483445 3.730680766305628e-18 0.01161555511594955 0.08518581798483445 0.03505446479491967 0.0851858179856376)