/*--------------------------------*- C++ -*----------------------------------*\
| =========                 |                                                 |
| \\      /  F ield         | OpenFOAM: The Open Source CFD Toolbox           |
|  \\    /   O peration     | Version:  2212                                  |
|   \\  /    A nd           | Website:  www.openfoam.com                      |
|    \\/     M anipulation  |                                                 |
\*---------------------------------------------------------------------------*/
FoamFile
{
    version     2.0;
    format      ascii;
    arch        "LSB;label=32;scalar=64";
    note        "face data";
    class       scalarField;
    location    "/work/hetmann/EXASIM/WP5/basicSetup_Perdigao/00_caseFiles/Leipzig_profile/postProcessing/surfaces/precursor_profile/400000";
    object      nut;
}
// * * * * * * * * * * * * * * * * * * * * * * * * * * * * * * * * * * * * * //


320
(
0.256903944505993
0.2569039445059098
0.653240443196782
0.6532404431965486
1.044265248321408
1.044265248320998
1.446853755045018
1.446853755044445
1.863271368654659
1.86327136865384
2.290697854258964
2.290697854257846
2.727644598571529
2.727644598570151
3.173177772695889
3.173177772694161
3.626611323541876
3.626611323539814
4.087370122188702
4.087370122186359
4.554922659324461
4.554922659321497
5.028745214070248
5.028745214066819
5.508301553522305
5.508301553518288
5.993030908822396
5.993030908817838
6.482340695933505
6.482340695928189
6.97560216508509
6.975602165079037
7.472148003691029
7.4721480036839
7.971271351078185
7.971271351070258
8.472225916244202
8.472225916234922
8.974227018725603
8.974227018715162
9.476453445239233
9.476453445227786
9.978050054816119
9.97805005480299
10.47813108795988
10.47813108794456
10.97578414479424
10.97578414477718
11.47007480051387
11.47007480049442
11.96005182543511
11.96005182541293
12.44475297246642
12.44475297244125
12.92321128900089
12.92321128897198
13.39446190358817
13.39446190355476
13.85754923111198
13.85754923107448
14.31153453417613
14.31153453413357
14.75550377367568
14.75550377362724
15.18857567866585
15.1885756786107
15.60990996516212
15.60990996510022
16.01871563610948
16.01871563603892
16.41425930089187
16.41425930081282
16.79587346305859
16.79587346297065
17.16296473988095
17.16296473978313
17.51502199712738
17.51502199701768
17.85162440656875
17.85162440644642
18.1724495123996
18.17244951226407
18.47728115893874
18.47728115878882
18.76601756529138
18.76601756512469
19.03867960778609
19.03867960760203
19.29541890102022
19.29541890081529
19.5365255300095
19.53652552978154
19.76243461184896
19.7624346115952
19.97373037607517
19.9737303757941
20.1711458516779
20.17114585136587
20.35555574264183
20.35555574229494
20.52795988160822
20.52795988122136
20.68945502214306
20.68945502171265
20.8411938812874
20.84119388080806
20.98433234743317
20.98433234689949
21.11996839214004
21.11996839154522
21.24907881787522
21.24907881721393
21.37246156762113
21.37246156688585
21.49069104178171
21.49069104096554
21.60409148812029
21.60409148721553
21.71272975567554
21.7127297546762
21.8187514494437
21.8187514483348
21.9219855295385
21.92198552831186
22.01982324865973
22.01982324730544
22.11172872822724
22.111728726739
22.19707095897881
22.19707095735409
22.27515432898954
22.27515432722637
22.34524492174402
22.34524491984306
22.40659254382379
22.40659254178873
22.45844887672805
22.45844887456454
22.50008021959565
22.50008021731201
22.53078060274327
22.53078060035277
22.54988719499226
22.54988719251027
22.55677999105986
22.55677998850289
22.55089082427399
22.55089082166831
22.53170777455661
22.5317077719299
22.49877811483174
22.49877811222114
22.45170981423266
22.45170981168165
22.39017154818364
22.39017154574442
22.31389108871715
22.31389108645295
22.22265185100941
22.22265184900026
22.11682102324988
22.11682102144587
21.99643480715292
21.996434805336
21.86100670047876
21.86100669871089
21.71061188157601
21.71061187995046
21.54537586894172
21.545375867564
21.36546962930259
21.36546962828164
21.17110381391461
21.17110381336764
20.96252198464076
20.9625219846971
20.74016640044864
20.74016640111615
20.5043946214785
20.50439462246747
20.25540228665679
20.25540228805434
19.99356042297621
19.99356042489149
19.71925359166199
19.71925359419807
19.43287571276694
19.43287571601165
19.13482625782644
19.13482626186012
18.82550687807131
18.82550688296293
18.50531852136123
18.50531852717043
18.17465907623964
18.17465908301664
17.83392156671285
17.83392157450186
17.48349290676745
17.4834929156027
17.12375320959445
17.12375321950266
16.75507563274556
16.75507564374642
16.37782672652193
16.37782673862367
15.99236723709743
15.99236725029919
15.59905329500739
15.59905330929471
15.19823788679279
15.19823790212946
14.7902724492294
14.79027246551353
14.37550831533441
14.37550833227463
13.95431336767927
13.95431338519185
13.52705624605765
13.52705626553526
13.09410247964851
13.09410250073501
12.65584044024854
12.65584046263437
12.21267485016573
12.2126748734379
11.76503248761302
11.76503251106228
11.31337258730186
11.31337260965877
10.85820930790987
10.85820932696261
10.40013965676517
10.40013966843781
9.93964336164893
9.939643359725766
9.477275384394218
9.477275360530253
9.013658846358844
9.013658791298173
8.549467610736281
8.549467514235403
8.085435335250079
8.085435191780139
7.622359280759714
7.622359095863568
7.161112982325276
7.161112779593321
6.702643072794382
6.702642854917454
6.247813674821639
6.247813419380649
5.797620141735143
5.797619808452504
5.353197436770958
5.353196957051114
4.915911859852378
4.915911103109566
4.487134824271773
4.487133559661366
4.06835539943095
4.068353239179961
3.661158813651419
3.661155103130093
3.267120980441624
3.26711474067628
2.888144542270329
2.888134682473069
2.526527258277925
2.52651366125653
2.186523475809127
2.186509936803178
1.873016313417099
1.873014269592152
1.590157137861415
1.590183607413491
1.345307612913264
1.34537089176417
1.144387684044267
1.144465749671295
0.9843549394015614
0.984413459487906
0.8578350834373546
0.8578665533525751
0.7646498151372355
0.7646584019148319
0.7019951121311194
0.7019870246521438
0.6616749044690371
0.6616603139586876
0.6351142646352885
0.635101668834078
0.6159049678258783
0.6158981427704975
0.5998998840837213
0.5998981916905486
0.5846156725559228
0.5846166100034046
0.5686283320492874
0.5686297772892496
0.5510296379149759
0.551030579957244
0.5311247177769327
0.5311250397659015
0.5082997460461494
0.5082997015734356
0.481926642908862
0.4819264768745103
0.4512610546723093
0.4512608712343736
0.4153251163309356
0.4153249095403434
0.3726934546898844
0.3726931769993548
0.3209091904296942
0.3209088047433498
0.2567063149022526
0.25670617714789
0.2179400852367114
0.2179358489708315
)


// ************************************************************************* //
