/*--------------------------------*- C++ -*----------------------------------*\
| =========                 |                                                 |
| \\      /  F ield         | OpenFOAM: The Open Source CFD Toolbox           |
|  \\    /   O peration     | Version:  2212                                  |
|   \\  /    A nd           | Website:  www.openfoam.com                      |
|    \\/     M anipulation  |                                                 |
\*---------------------------------------------------------------------------*/
FoamFile
{
    version     2.0;
    format      ascii;
    arch        "LSB;label=32;scalar=64";
    note        "face data";
    class       scalarField;
    location    "/work/hetmann/EXASIM/WP5/basicSetup_Perdigao/00_caseFiles/Leipzig_profile/postProcessing/surfaces/precursor_profile/400000";
    object      omega;
}
// * * * * * * * * * * * * * * * * * * * * * * * * * * * * * * * * * * * * * //


320
(
6.101747384699167
6.101747385729988
2.774042243634904
2.774042244076985
1.7014979216522
1.701497921899105
1.206331027145108
1.206331027302969
0.926071047225538
0.9260710473372999
0.7470554610043174
0.7470554610918376
0.623270750501286
0.6232707505771429
0.5327790237570037
0.5327790238289332
0.4638557707603707
0.463855770833275
0.4096857122938641
0.4096857123708543
0.3660440318493156
0.3660440319323047
0.3301753088871676
0.3301753089772375
0.3002070721410033
0.300207072238642
0.2748229558660071
0.274822955971271
0.2530708078655826
0.253070807978208
0.2342450164889862
0.2342450166084711
0.2178116350504157
0.2178116351760801
0.2033592015282964
0.2033592016593255
0.1905655323561878
0.1905655324916644
0.1791747530194454
0.1791747531581366
0.1689810662840602
0.1689810664282898
0.1598170613784917
0.159817061531369
0.151545148895991
0.151545149055753
0.1440511879062054
0.1440511880704776
0.1372396781531688
0.1372396783195419
0.1310300863063979
0.1310300864725096
0.1253540059519732
0.1253540061154984
0.1201529384826442
0.1201529386412676
0.1153765419039207
0.1153765420553139
0.1109812361390968
0.110981236280902
0.1069290826931907
0.106929082823015
0.1031868774296899
0.1031868775451079
0.09972541030718857
0.09972541040575614
0.0965188569488806
0.09651885702815866
0.09354427505619363
0.09354427511378287
0.09078118474215244
0.09078118477574268
0.08821121641818148
0.08821121642561559
0.0858178133211327
0.08581781330048685
0.08358597840288592
0.08358597835257442
0.08150205734677346
0.08150205726574433
0.0795535505833104
0.07955355045897575
0.07772895110270661
0.07772895092892812
0.07601759922494927
0.07601759899973545
0.07440955606255915
0.07440955578445779
0.07289549073392268
0.07289549040180081
0.07146658152505125
0.07146658113818058
0.07011443209424756
0.07011443165248638
0.06883100573218724
0.068831005236176
0.06760858240234734
0.06760858185369296
0.06643974422217749
0.06643974362361595
0.06531739454132302
0.06531739389685404
0.06423481322573259
0.06423481254071531
0.06318574589457748
0.06318574517577571
0.06216451808434281
0.06216451733991471
0.061166158038366
0.06116615727779193
0.06018650645725164
0.06018650569119831
0.05922229081089643
0.0592222900510161
0.05827114728843434
0.05827114654709763
0.05733158424562875
0.05733158353564599
0.05640289371034181
0.05640289305298676
0.05547780806094862
0.05547780738464982
0.05455659530757256
0.05455659450068196
0.05364665271826703
0.05364665181040489
0.05274852490351425
0.05274852393762093
0.0518628564208765
0.05186285543514989
0.05099030977200034
0.05099030879791001
0.05013150612489925
0.05013150518808714
0.04928698511779387
0.04928698423941782
0.04845717963437174
0.04845717883226124
0.04764243047095887
0.04764242976079387
0.04684295821037761
0.04684295760538112
0.04605876873445296
0.04605876824619254
0.0452898030666188
0.04528980270468563
0.04453588593908371
0.04453588571049777
0.0437967342239737
0.04379673413202938
0.04307196683221443
0.04307196687451491
0.04236111587044789
0.04236111603569345
0.04166363905726268
0.04166363932000423
0.04097893359510922
0.04097893390660627
0.04030635173275525
0.04030635200844362
0.0396435613457712
0.03964356170616801
0.03898951749231812
0.03898951794653832
0.03834496573610119
0.03834496625379871
0.03770895248515006
0.03770895304584638
0.03708051163897103
0.03708051220343813
0.03645867390598313
0.03645867440696949
0.03584247691879747
0.03584247724968836
0.03523097630793086
0.035230976215171
0.03462262051014831
0.0346226204930896
0.03401634435255053
0.03401634491445162
0.03341183027566034
0.03341183121002227
0.03280814933365693
0.03280815044129726
0.03220441073579461
0.03220441186664205
0.03159976673692299
0.03159976777545005
0.03099341664900095
0.03099341749737786
0.03038461042186281
0.0303846109880712
0.0297726518029898
0.02977265199314093
0.02915690107329643
0.02915690078643541
0.02853677736340954
0.02853677648737885
0.02791176056724443
0.02791175897451538
0.02728139288284116
0.02728139042540632
0.02664528002358164
0.02664527652605966
0.02600309215637876
0.02600308740652647
0.02535456463908381
0.02535455837528645
0.02469949865562444
0.02469949055322518
0.02403776193813215
0.02403775161273099
0.0233692904232578
0.02336927760143492
0.02269409543218431
0.02269407918217875
0.02201216833868018
0.02201215091258121
0.02132363326741692
0.02132361691872695
0.0206287959976169
0.02062877887137953
0.01992792102251627
0.01992790197344482
0.01922133343861508
0.01922131212483181
0.0185094212722744
0.01850939776310585
0.01779262022488254
0.01779259490718378
0.01707137663649153
0.01707135027750387
0.01634617241343647
0.01634614645722819
0.01561941190931948
0.0156193881463539
0.01489036096024473
0.01489034441944699
0.01416009508564231
0.01416009012026666
0.01342987863201338
0.01342988779333559
0.01270091314055053
0.01270093906976649
0.01197450698838242
0.01197455027146421
0.0112521017947258
0.01125215916996502
0.01053529997503448
0.01053536516960056
0.009826034518696489
0.009826104830438082
0.009126236855739739
0.009126312721772993
0.008437545867317521
0.008437629424642408
0.007760207101324646
0.007760301349803031
0.007108037892150464
0.00710814007130375
0.006475746748141068
0.006475855063195781
0.005867368601799953
0.005867478986802745
0.00528713159820211
0.005287237041583867
0.004738714753675161
0.00473880669597286
0.004224265117269703
0.004224337436080807
0.003740751223476728
0.003740797167156305
0.003291337917174603
0.003291466000980908
0.002852608283199581
0.002852883219087995
0.002397696048075445
0.002398165868396003
0.00189613666197713
0.001896805713218299
0.001409135864507651
0.001409815877765708
0.001130538542195238
0.001130907694541836
0.001114692273271053
0.00111472882275388
0.001197979203140161
0.001197901561825857
0.001271423487012117
0.001271329949288046
0.001308688353453331
0.001308615983441979
0.001312348928066196
0.00131230898635866
0.001291625938454936
0.001291615067298574
0.001256942072420601
0.001256948581929902
0.001216243989868684
0.001216255218180617
0.001173505756461434
0.001173513777865069
0.001128952129630082
0.001128955344933078
0.001080419833156081
0.001080419827112774
0.001025380541654685
0.001025379270124463
0.0009617663975425938
0.0009617648790219677
0.0008878500832139318
0.0008878483723626802
0.0008018134879559574
0.0008018111388707942
0.0007009730615827901
0.0007009695026361942
0.0005704576773988067
0.0005704550865217903
0.0003233053753983456
0.0003234054702898227
)


// ************************************************************************* //
