/*--------------------------------*- C++ -*----------------------------------*\
| =========                 |                                                 |
| \\      /  F ield         | OpenFOAM: The Open Source CFD Toolbox           |
|  \\    /   O peration     | Version:  2212                                  |
|   \\  /    A nd           | Website:  www.openfoam.com                      |
|    \\/     M anipulation  |                                                 |
\*---------------------------------------------------------------------------*/
FoamFile
{
    version     2.0;
    format      ascii;
    arch        "LSB;label=32;scalar=64";
    note        "face data";
    class       scalarField;
    location    "/work/hetmann/EXASIM/WP5/basicSetup_Perdigao/00_caseFiles/Leipzig_profile/postProcessing/surfaces/precursor_profile/400000";
    object      T;
}
// * * * * * * * * * * * * * * * * * * * * * * * * * * * * * * * * * * * * * //


320
(
300.0000211348678
300.0000211348796
300.0000209078875
300.0000209078993
300.0000207833148
300.0000207833265
300.000020696329
300.0000206963408
300.0000206292681
300.0000206292798
300.0000205745578
300.0000205745695
300.0000205282229
300.0000205282347
300.0000204879327
300.0000204879446
300.0000204522084
300.0000204522203
300.0000204200547
300.0000204200668
300.0000203907702
300.0000203907822
300.0000203638422
300.0000203638542
300.0000203388848
300.0000203388969
300.0000203156004
300.0000203156126
300.0000202937539
300.0000202937661
300.000020273157
300.0000202731692
300.0000202536562
300.0000202536684
300.0000202351249
300.000020235137
300.0000202174568
300.000020217469
300.0000202005618
300.0000202005741
300.0000201843785
300.0000201843907
300.0000201688396
300.0000201688516
300.0000201538721
300.0000201538843
300.0000201394261
300.0000201394384
300.0000201254565
300.000020125469
300.0000201119237
300.000020111936
300.0000200987922
300.0000200988044
300.0000200860302
300.0000200860424
300.0000200736089
300.000020073621
300.0000200615027
300.0000200615148
300.0000200496876
300.0000200496997
300.0000200381421
300.0000200381543
300.0000200268465
300.0000200268589
300.0000200157826
300.000020015795
300.0000200049336
300.0000200049457
300.0000199942834
300.0000199942957
300.0000199838183
300.0000199838305
300.0000199735245
300.000019973537
300.0000199633898
300.0000199634022
300.0000199534022
300.0000199534144
300.0000199435656
300.0000199435777
300.0000199338698
300.0000199338819
300.00001992429
300.0000199243021
300.0000199148167
300.0000199148288
300.0000199054417
300.0000199054538
300.0000198961559
300.000019896168
300.000019886952
300.0000198869641
300.000019877823
300.0000198778349
300.0000198687625
300.0000198687744
300.0000198597648
300.0000198597763
300.0000198508245
300.0000198508362
300.0000198419375
300.0000198419493
300.0000198330996
300.0000198331114
300.0000198243076
300.0000198243195
300.0000198155591
300.0000198155709
300.0000198068516
300.0000198068634
300.0000197981839
300.0000197981955
300.0000197895545
300.0000197895662
300.0000197809627
300.0000197809744
300.0000197724072
300.0000197724188
300.0000197639026
300.0000197639141
300.0000197554495
300.0000197554608
300.0000197470318
300.0000197470429
300.0000197386485
300.0000197386593
300.0000197302975
300.0000197303083
300.0000197219769
300.0000197219874
300.0000197136843
300.0000197136949
300.0000197054177
300.0000197054281
300.0000196971743
300.0000196971846
300.0000196889513
300.0000196889615
300.0000196807457
300.0000196807559
300.0000196725541
300.0000196725643
300.0000196643732
300.0000196643833
300.000019656199
300.000019656209
300.0000196480275
300.0000196480373
300.0000196398547
300.0000196398644
300.0000196316761
300.0000196316857
300.0000196234872
300.0000196234969
300.0000196152836
300.0000196152931
300.0000196070599
300.0000196070695
300.0000195988263
300.0000195988356
300.0000195905781
300.0000195905871
300.0000195822939
300.0000195823029
300.0000195739681
300.0000195739768
300.0000195655936
300.0000195656023
300.0000195571638
300.0000195571724
300.0000195486713
300.00001954868
300.0000195401087
300.0000195401175
300.0000195314834
300.0000195314921
300.0000195227885
300.0000195227969
300.0000195139998
300.0000195140079
300.0000195051077
300.0000195051157
300.0000194961025
300.0000194961102
300.0000194869734
300.0000194869809
300.0000194777094
300.0000194777167
300.0000194682989
300.0000194683062
300.0000194587296
300.0000194587369
300.000019448989
300.0000194489963
300.0000194390627
300.0000194390701
300.0000194289367
300.000019428944
300.000019418595
300.0000194186023
300.0000194080209
300.0000194080283
300.0000193971962
300.0000193972037
300.0000193861018
300.0000193861093
300.0000193747167
300.0000193747243
300.0000193630184
300.0000193630264
300.0000193509828
300.0000193509909
300.0000193385828
300.0000193385912
300.0000193258056
300.000019325814
300.000019312621
300.0000193126293
300.000019298977
300.0000192989852
300.0000192848343
300.0000192848423
300.0000192701488
300.0000192701569
300.0000192548719
300.0000192548802
300.0000192389493
300.0000192389579
300.000019222321
300.0000192223296
300.0000192049191
300.0000192049276
300.000019186667
300.0000191866754
300.0000191674941
300.0000191675023
300.0000191473054
300.0000191473127
300.0000191259695
300.0000191259762
300.0000191033564
300.000019103362
300.0000190793155
300.0000190793194
300.0000190536722
300.000019053674
300.0000190262233
300.0000190262229
300.0000189967347
300.0000189967325
300.000018964929
300.0000189649249
300.0000189304762
300.0000189304708
300.0000188929822
300.0000188929756
300.0000188519736
300.0000188519661
300.0000188068714
300.0000188068633
300.0000187569609
300.0000187569523
300.0000187013511
300.0000187013417
300.0000186389114
300.0000186389013
300.0000185681797
300.0000185681678
300.0000184872238
300.0000184872093
300.0000183934668
300.0000183934505
300.0000182835499
300.0000182835352
300.0000181537952
300.0000181537895
300.0000180028914
300.0000180028966
300.0000178368779
300.0000178368842
300.0000176617373
300.0000176617365
300.000017475002
300.000017475
300.0000172775734
300.000017277572
300.000017075476
300.0000170754746
300.0000168722564
300.0000168722569
300.0000166697183
300.0000166697219
300.0000164694094
300.0000164694144
300.0000162726059
300.0000162726117
300.0000160801511
300.0000160801572
300.0000158926021
300.0000158926083
300.0000157105542
300.0000157105609
300.000015534781
300.0000155347887
300.000015366294
300.0000153663018
300.0000152063747
300.0000152063828
300.0000150566588
300.0000150566671
300.000014919306
300.0000149193145
300.0000147973657
300.0000147973751
300.0000146958414
300.0000146958506
300.0000146316914
300.0000146317005
)


// ************************************************************************* //
