/*--------------------------------*- C++ -*----------------------------------*\
| =========                 |                                                 |
| \\      /  F ield         | OpenFOAM: The Open Source CFD Toolbox           |
|  \\    /   O peration     | Version:  2212                                  |
|   \\  /    A nd           | Website:  www.openfoam.com                      |
|    \\/     M anipulation  |                                                 |
\*---------------------------------------------------------------------------*/
FoamFile
{
    version     2.0;
    format      ascii;
    arch        "LSB;label=32;scalar=64";
    note        "face data";
    class       scalarField;
    location    "/work/hetmann/EXASIM/WP5/basicSetup_Perdigao/00_caseFiles/Leipzig_profile/postProcessing/surfaces/precursor_profile/400000";
    object      turbulenceProperties:L;
}
// * * * * * * * * * * * * * * * * * * * * * * * * * * * * * * * * * * * * * //


320
(
0.3951823360628888
0.3951823360638442
0.8905440174716664
0.8905440174857301
1.430306603586359
1.430306603642175
1.999486663302129
1.999486663436091
2.589735120270913
2.589735120517948
3.197031601545287
3.197031601933094
3.819398459473887
3.819398460019642
4.455670807530887
4.455670808239489
5.105032160086662
5.105032160950094
5.766815204350009
5.766815205347505
6.440406829737389
6.440406830836222
7.125198774264241
7.125198775420979
7.820560124466731
7.820560125628889
8.525821164767336
8.525821165875314
9.240263593856231
9.240263594845516
9.963114607490281
9.963114608293846
10.6935435363874
10.69354353693826
11.43066032899371
11.43066032922759
12.17351548607879
12.17351548593689
12.921101227259
12.92110122669961
13.67235374578263
13.67235374469151
14.42615655111188
14.42615654925336
15.18134477711038
15.18134477440568
15.93671039098056
15.93671038740456
16.69100840513777
16.69100840070642
17.44296396501206
17.44296395978419
18.19128029836455
18.19128029244692
18.93464747942522
18.93464747297886
19.6717519514776
19.67175194472421
20.40128674182246
20.40128673505048
21.12196229433144
21.12196228790088
21.83251783794359
21.83251783228923
22.53173320536052
22.53173320099258
23.21844101575727
23.21844101325875
23.8915391394803
23.89153913949972
24.55000337240704
24.55000337564564
25.19290026386761
25.19290027105956
25.81940006567906
25.81940007756256
26.42878980142596
26.42878981870241
27.02048649140706
27.02048651467222
27.59405074288087
27.59405077601909
28.14920025625008
28.14920030215305
28.68582439274316
28.68582445281215
29.20399896740729
29.20399904283893
29.70400143964538
29.70400153153656
30.18632595241809
30.18632606174862
30.65169694473189
30.6516970723027
31.10107917217791
31.10107931853516
31.53568091930446
31.53568108465952
31.95694627937081
31.95694646352124
32.36653198763344
32.36653218989076
32.76626485790792
32.76626507703599
33.1580777614518
33.15807799562015
33.54392541861861
33.54392566537551
33.92568564961122
33.9256859058776
34.30505606386764
34.30505632595214
34.68345885498306
34.68345911861605
35.06196596690017
35.06196622728498
35.44125302847199
35.44125328032522
35.82158423079876
35.82158446504933
36.20711052809953
36.20711076367984
36.59782289025591
36.59782317237382
36.98920309604922
36.98920341556817
37.38058316578391
37.3805835082912
37.77113913069205
37.77113948331473
38.15993751991936
38.15993787205755
38.54597492706382
38.54597527002655
38.92821073806829
38.92821106452836
39.30559379643753
39.30559409995122
39.67707022273783
39.67707049721825
40.04160965848885
40.04160989836999
40.39826541449833
40.39826561437504
40.7461178876213
40.74611804242518
41.08430959114899
41.08430969650405
41.41205183480928
41.41205188775898
41.72862927033559
41.72862927065378
42.0334021941166
42.03340214658398
42.32580634193914
42.32580626028056
42.60534972865918
42.60534964273468
42.87160595381933
42.87160592109495
43.12562490058392
43.12562481438729
43.36751043260819
43.36751020336911
43.59584837703987
43.59584801339587
43.8106852925676
43.81068480260021
44.01214132789784
44.01214072994379
44.20040293275578
44.20040226096099
44.37571344398321
44.37571275809984
44.53836112657407
44.53836059224366
44.6892593044949
44.68925866795304
44.82897895741851
44.8289778417921
44.95745206132145
44.95745056458225
45.07521276511292
45.07521098144487
45.18281913550358
45.18281712702212
45.28084574101561
45.28084354578601
45.36987681700221
45.36987445859049
45.45049981036489
45.45049730429925
45.52329938547871
45.52329674300354
45.58885197137859
45.5888492014961
45.64772091484808
45.64771802543379
45.7004522849539
45.70044928349331
45.7475713544966
45.7475682488288
45.78957976341426
45.78957656271862
45.82695334760212
45.82695006359171
45.86014059049913
45.8601372378626
45.88956161052398
45.88955820195142
45.91560745418941
45.91560396348062
45.93863852094589
45.938634619876
45.95897521119149
45.95897086481632
45.97696789032138
45.97696243460961
45.99291298786438
45.99290601751744
46.00700698272301
46.00699945728176
46.01949805462168
46.01949047123692
46.03062820684495
46.03062049881157
46.04064348928596
46.040635391442
46.0498347100409
46.04982584790741
46.05863518357008
46.05862500822777
46.06767982262701
46.06766716189883
46.07474514596369
46.07472841275066
46.08204344443415
46.08202083625944
46.08959656457233
46.08956760879332
46.0975934524522
46.09755696595637
46.10632381549164
46.10627868429302
46.11618092648133
46.11612859916541
46.12769583630593
46.12764289746681
46.14156106288353
46.14151692005002
46.1576099964396
46.15757722588592
46.17613893854265
46.1761127411873
46.19923786399278
46.19920622456
46.23661463310692
46.23655534197998
46.25416316024699
46.25406226375779
46.26939744686813
46.26922898075016
46.27209270734948
46.27182712318845
46.24325906754
46.24287148808656
46.15145161650471
46.15093615288468
45.94880031573523
45.94819806674425
45.58683990878556
45.58637996486702
44.94540874690129
44.94486757115315
44.06539901052617
44.06485251945102
43.22359184225828
43.2226091346357
43.60758508399759
43.60356218591966
47.19238738500482
47.18130062287264
51.63197945512344
51.62109298820984
51.1699940864751
51.16732069504711
48.95471200599215
48.95458562125941
47.45859081616965
47.45894293813532
46.61797874732564
46.61843964147135
46.15833396034588
46.15875393202249
45.94784498846218
45.94811236390959
45.9005386880736
45.9006227542564
45.93658383683892
45.93654310961021
45.98572259872866
45.9856470914594
46.0069267980704
46.0068696156231
45.99399142423948
45.99396570284325
45.9548929073059
45.95488950736022
45.8948821448938
45.89488939409194
45.80568787417123
45.80570280317964
45.65011111486257
45.65014246549229
45.31952327345931
45.31959288841237
44.99123471269291
44.99134122346664
55.15563952773671
55.1453617795644
)


// ************************************************************************* //
