/*--------------------------------*- C++ -*----------------------------------*\
| =========                 |                                                 |
| \\      /  F ield         | OpenFOAM: The Open Source CFD Toolbox           |
|  \\    /   O peration     | Version:  v2212                                 |
|   \\  /    A nd           | Website:  www.openfoam.com                      |
|    \\/     M anipulation  |                                                 |
\*---------------------------------------------------------------------------*/
FoamFile
{
    version     2.0;
    format      ascii;
    class       dictionary;
    object      decomposeParDict;
}
// * * * * * * * * * * * * * * * * * * * * * * * * * * * * * * * * * * * * * //

numberOfSubdomains  64;

method          scotch;

constraints
{
    preservePatches
    {
        type            preservePatches;
        patches         ( 
                        sides1_half0
                        sides2_half0
                        sides1_half1
                        sides2_half1 
                        inout1_half0
                        inout2_half1
                        inout1_half1
                        inout2_half0
                        );
    }
}
writeCells    true;
// ************************************************************************* //
