/*--------------------------------*- C++ -*----------------------------------*\
| =========                 |                                                 |
| \\      /  F ield         | OpenFOAM: The Open Source CFD Toolbox           |
|  \\    /   O peration     | Version:  plus                                  |
|   \\  /    A nd           | Web:      www.OpenFOAM.com                      |
|    \\/     M anipulation  |                                                 |
\*---------------------------------------------------------------------------*/
FoamFile
{
    version     2.0;
    format      ascii;
    class       dictionary;
    location    "system";
    object      sampleDict;
}
// * * * * * * * * * * * * * * * * * * * * * * * * * * * * * * * * * * * * * //
type                sets;
libs                ( "libsampling.so" );

writeControl        writeTime;


interpolationScheme cell;
setFormat           raw;

fields
(
    UMean
    UPrime2Mean
    pMean
    pPrime2Mean
);

sets
(
    lineR
    {
        type        midPoint;
        axis        y;
        start       (0.385 0.0 0.205);
        end         (0.385 2.0 0.205);
    }
);

// ************************************************************************* //
