/*--------------------------------*- C++ -*----------------------------------*\
| =========                 |                                                 |
| \\      /  F ield         | OpenFOAM: The Open Source CFD Toolbox           |
|  \\    /   O peration     | Version:  2212                                  |
|   \\  /    A nd           | Website:  www.openfoam.com                      |
|    \\/     M anipulation  |                                                 |
\*---------------------------------------------------------------------------*/
FoamFile
{
    version     2.0;
    format      binary;
    arch        "LSB;label=32;scalar=64";
    class       volScalarField;
    location    "62004";
    object      p_rgh;
}
// * * * * * * * * * * * * * * * * * * * * * * * * * * * * * * * * * * * * * //

#include        "${FOAM_CASE}/system/include/caseDefinition"

dimensions      [ 0 2 -2 0 0 0 0 ];

internalField   uniform 0;

boundaryField
{
    // inlet
    "ii_.*"
    {
        type            zeroGradient;
    }

    // outlet
    "oo_.*"
    {
        type            zeroGradient;
    }

    upper
    {
        //type            fixedFluxPressure;
        type            fixedValue;
        value           uniform 0;
    }

    // mixed inlet-outlet
    "io_.*"
    {
        type            zeroGradient;
    }
    "ww_.*"
    {
        type            fixedFluxPressure;
    }

    #include            "include/constraintPatches"
}


// ************************************************************************* //
