/*--------------------------------*- C++ -*----------------------------------*\
| =========                 |                                                 |
| \\      /  F ield         | OpenFOAM: The Open Source CFD Toolbox           |
|  \\    /   O peration     | Version:  v2212                                 |
|   \\  /    A nd           | Web:      www.OpenFOAM.com                      |
|    \\/     M anipulation  |                                                 |
\*---------------------------------------------------------------------------*/
FoamFile
{
    version     2.0;
    format      ascii;
    class       volScalarField;
    location    "0";
    object      p;
}
// * * * * * * * * * * * * * * * * * * * * * * * * * * * * * * * * * * * * * //

#include        "${FOAM_CASE}/system/include/caseDefinition"

dimensions      [ 0 2 -2 0 0 0 0 ];
internalField   uniform $pref;

boundaryField
{
    $inletPatch		//Inlet
    {
        type            zeroGradient;
    }

    $outletPatch		//Outlet
    {
        type            fixedValue;
        value           $internalField;
    }

    $forcesWallPatches
    {
        type            zeroGradient;
    }
    $remainingWallPatches
    {
        type            zeroGradient;
    }

    #include            "include/constraintPatches"
}

// ************************************************************************* //
